version 2
run Ping2-0-20160715-14:05:02-4035
attr configname Ping2
attr datetime 20160715-14:05:02
attr experiment Ping2
attr inifile omnetpp.ini
attr iterationvars ""
attr iterationvars2 $repetition=0
attr measurement ""
attr network Net80211test
attr processid 4035
attr repetition 0
attr replication #0
attr resultdir results
attr runnumber 0
attr seedset 0
param **.constraintAreaMaxX 600m
param **.constraintAreaMaxY 400m
param **.constraintAreaMaxZ 0m
param **.constraintAreaMinX 0m
param **.constraintAreaMinY 0m
param **.constraintAreaMinZ 0m
param **.host*.mobility.changeAngleBy "normal(0deg, 30deg)"
param **.host*.mobility.changeInterval "truncnormal(2s, 0.5s)"
param **.host*.mobility.initFromDisplayString false
param **.host*.mobility.speed "truncnormal(20mps, 8mps)"
param **.host*.mobility.updateInterval 100ms
param **.host*.mobilityType "\"MassMobility\""
param **.host[*].networkLayerType "\"IPv4ExtNetworkLayer\""
param **.host[*].udpType "\"UDPExt\""
param **.ip.forceBroadcast true
param **.udpApp[*].delayLimit 3s
param **.udpApp[*].stopTime 10000s
param **.udpApp[0].burstDuration 1s
param **.udpApp[0].chooseDestAddrMode "\"perBurst\""
param **.udpApp[0].destAddresses "\"255.255.255.255\""
param **.udpApp[0].destPort 100
param **.udpApp[0].localPort 100
param **.udpApp[0].messageLength 1250B
param **.udpApp[0].sendInterval 0.5s
param **.udpApp[0].sleepDuration "truncnormal(1s, 0.1s)"
param **.udpApp[0].startTime "truncnormal(5s, 1s)"
param **.udpApp[1].burstDuration 100s
param **.udpApp[1].chooseDestAddrMode "\"perBurst\""
param **.udpApp[1].destAddresses "moduleListByNedType(\"inet.node.inet.AdhocHost\")"
param **.udpApp[1].destPort 200
param **.udpApp[1].localPort 200
param **.udpApp[1].messageLength 1250B
param **.udpApp[1].sendInterval 0.5s
param **.udpApp[1].sleepDuration "truncnormal(10s, 0.1s)"
param **.udpApp[1].startTime "truncnormal(10s, 1s)"
param **.wlan[*].bitrate 2Mbps
param **.wlan[*].mac.address "\"auto\""
param **.wlan[*].mac.cwMinBroadcast 31
param **.wlan[*].mac.cwMinData 7
param **.wlan[*].mac.maxQueueSize 14
param **.wlan[*].mac.retryLimit 7
param **.wlan[*].mac.rtsThresholdBytes 3000B
param **.wlan[*].macType "\"Ieee80211MacExt\""
param **.wlan[*].mgmt.frameCapacity 10
param **.wlan[*].mgmtType "\"Ieee80211MgmtAdhocExt\""
param **.wlan[*].radio.receiver.sensitivity -85dBm
param **.wlan[*].radio.receiver.snirThreshold 4dB
param **.wlan[*].radio.receiverType "\"Ieee80211ScalarReceiverExt\""
param **.wlan[*].radio.transmitter.power 2mW
param *.host[*].numUdpApps 2
param *.host[*].udpApp[0].typename "\"UDPStatisticsApp\""
param *.host[*].udpApp[1].typename "\"UDPBasicBurstExt\""

vector 28  Net80211test.host[0].wlan[0].mac.ctn[0]  state:vector  ETV
attr interpolationmode  none
attr source  stateChanged
attr title  "contention state, vector"
vector 57  Net80211test.host[1].wlan[0].mac.ctn[0]  state:vector  ETV
attr interpolationmode  none
attr source  stateChanged
attr title  "contention state, vector"
vector 86  Net80211test.host[2].wlan[0].mac.ctn[0]  state:vector  ETV
attr interpolationmode  none
attr source  stateChanged
attr title  "contention state, vector"
vector 115  Net80211test.host[3].wlan[0].mac.ctn[0]  state:vector  ETV
attr interpolationmode  none
attr source  stateChanged
attr title  "contention state, vector"
vector 144  Net80211test.host[4].wlan[0].mac.ctn[0]  state:vector  ETV
attr interpolationmode  none
attr source  stateChanged
attr title  "contention state, vector"
vector 173  Net80211test.host[5].wlan[0].mac.ctn[0]  state:vector  ETV
attr interpolationmode  none
attr source  stateChanged
attr title  "contention state, vector"
vector 24  Net80211test.host[0].wlan[0].radio  radioMode:vector  ETV
attr interpolationmode  sample-hold
attr source  radioModeChanged
attr title  "Radio mode, vector"
vector 27  Net80211test.host[0].wlan[0].radio  radioChannel:vector  ETV
attr interpolationmode  sample-hold
attr source  radioChannelChanged
attr title  "Radio channel, vector"
vector 53  Net80211test.host[1].wlan[0].radio  radioMode:vector  ETV
attr interpolationmode  sample-hold
attr source  radioModeChanged
attr title  "Radio mode, vector"
vector 56  Net80211test.host[1].wlan[0].radio  radioChannel:vector  ETV
attr interpolationmode  sample-hold
attr source  radioChannelChanged
attr title  "Radio channel, vector"
vector 82  Net80211test.host[2].wlan[0].radio  radioMode:vector  ETV
attr interpolationmode  sample-hold
attr source  radioModeChanged
attr title  "Radio mode, vector"
vector 85  Net80211test.host[2].wlan[0].radio  radioChannel:vector  ETV
attr interpolationmode  sample-hold
attr source  radioChannelChanged
attr title  "Radio channel, vector"
vector 111  Net80211test.host[3].wlan[0].radio  radioMode:vector  ETV
attr interpolationmode  sample-hold
attr source  radioModeChanged
attr title  "Radio mode, vector"
vector 114  Net80211test.host[3].wlan[0].radio  radioChannel:vector  ETV
attr interpolationmode  sample-hold
attr source  radioChannelChanged
attr title  "Radio channel, vector"
vector 140  Net80211test.host[4].wlan[0].radio  radioMode:vector  ETV
attr interpolationmode  sample-hold
attr source  radioModeChanged
attr title  "Radio mode, vector"
vector 143  Net80211test.host[4].wlan[0].radio  radioChannel:vector  ETV
attr interpolationmode  sample-hold
attr source  radioChannelChanged
attr title  "Radio channel, vector"
vector 169  Net80211test.host[5].wlan[0].radio  radioMode:vector  ETV
attr interpolationmode  sample-hold
attr source  radioModeChanged
attr title  "Radio mode, vector"
vector 172  Net80211test.host[5].wlan[0].radio  radioChannel:vector  ETV
attr interpolationmode  sample-hold
attr source  radioChannelChanged
attr title  "Radio channel, vector"
vector 25  Net80211test.host[0].wlan[0].radio  receptionState:vector  ETV
attr interpolationmode  sample-hold
attr source  receptionStateChanged
attr title  "Radio reception state, vector"
vector 54  Net80211test.host[1].wlan[0].radio  receptionState:vector  ETV
attr interpolationmode  sample-hold
attr source  receptionStateChanged
attr title  "Radio reception state, vector"
vector 83  Net80211test.host[2].wlan[0].radio  receptionState:vector  ETV
attr interpolationmode  sample-hold
attr source  receptionStateChanged
attr title  "Radio reception state, vector"
vector 112  Net80211test.host[3].wlan[0].radio  receptionState:vector  ETV
attr interpolationmode  sample-hold
attr source  receptionStateChanged
attr title  "Radio reception state, vector"
vector 141  Net80211test.host[4].wlan[0].radio  receptionState:vector  ETV
attr interpolationmode  sample-hold
attr source  receptionStateChanged
attr title  "Radio reception state, vector"
vector 170  Net80211test.host[5].wlan[0].radio  receptionState:vector  ETV
attr interpolationmode  sample-hold
attr source  receptionStateChanged
attr title  "Radio reception state, vector"
vector 0  Net80211test.host[0].udpApp[0]  sentPk:vector(packetBytes)  ETV
attr interpolationmode  none
attr source  sentPk
attr title  "packets sent, vector(packetBytes)"
vector 10  Net80211test.host[0].udp  sentPk:vector(packetBytes)  ETV
attr interpolationmode  none
attr source  sentPk
attr title  "packets sent, vector(packetBytes)"
vector 18  Net80211test.host[0].lo0.lo  rcvdPkFromHL:vector(packetBytes)  ETV
attr interpolationmode  none
attr source  packetReceivedFromUpper
attr title  "packets received from higher layer, vector(packetBytes)"
vector 19  Net80211test.host[0].lo0.lo  passedUpPk:vector(packetBytes)  ETV
attr interpolationmode  none
attr source  packetSentToUpper
attr title  "packets passed to higher layer, vector(packetBytes)"
vector 22  Net80211test.host[0].wlan[0].mac  rcvdPkFromHL:vector(packetBytes)  ETV
attr interpolationmode  none
attr source  packetReceivedFromUpper
attr title  "packets received from higher layer, vector(packetBytes)"
vector 11  Net80211test.host[0].udp  rcvdPk:vector(packetBytes)  ETV
attr interpolationmode  none
attr source  rcvdPk
attr title  "packets received, vector(packetBytes)"
vector 12  Net80211test.host[0].udp  passedUpPk:vector(count)  ETV
attr interpolationmode  none
attr title  "packets passed up, vector(count)"
vector 1  Net80211test.host[0].udpApp[0]  rcvdPk:vector(packetBytes)  ETV
attr interpolationmode  none
attr source  rcvdPk
attr title  "packets received, vector(packetBytes)"
vector 4  Net80211test.host[0].udpApp[0]  endToEndDelay:vector  ETV
attr interpolationmode  none
attr source  messageAge(rcvdPk)
attr title  "delay, vector"
attr unit  s
vector 21  Net80211test.host[0].wlan[0].mac  sentDownPk:vector(packetBytes)  ETV
attr interpolationmode  none
attr source  packetSentToLower
attr title  "packets sent to lower layer, vector(packetBytes)"
vector 26  Net80211test.host[0].wlan[0].radio  transmissionState:vector  ETV
attr interpolationmode  sample-hold
attr source  transmissionStateChanged
attr title  "Radio transmission state, vector"
vector 139  Net80211test.host[4].wlan[0].mac  rcvdPkFromLL:vector(packetBytes)  ETV
attr interpolationmode  none
attr source  packetReceivedFromLower
attr title  "packets received from lower layer, vector(packetBytes)"
vector 136  Net80211test.host[4].wlan[0].mac  passedUpPk:vector(packetBytes)  ETV
attr interpolationmode  none
attr source  packetSentToUpper
attr title  "packets passed to higher layer, vector(packetBytes)"
vector 127  Net80211test.host[4].udp  rcvdPk:vector(packetBytes)  ETV
attr interpolationmode  none
attr source  rcvdPk
attr title  "packets received, vector(packetBytes)"
vector 129  Net80211test.host[4].udp  droppedPkWrongPort:vector(count)  ETV
attr interpolationmode  none
attr title  "packets dropped (wrong port), vector(count)"
vector 168  Net80211test.host[5].wlan[0].mac  rcvdPkFromLL:vector(packetBytes)  ETV
attr interpolationmode  none
attr source  packetReceivedFromLower
attr title  "packets received from lower layer, vector(packetBytes)"
vector 165  Net80211test.host[5].wlan[0].mac  passedUpPk:vector(packetBytes)  ETV
attr interpolationmode  none
attr source  packetSentToUpper
attr title  "packets passed to higher layer, vector(packetBytes)"
vector 156  Net80211test.host[5].udp  rcvdPk:vector(packetBytes)  ETV
attr interpolationmode  none
attr source  rcvdPk
attr title  "packets received, vector(packetBytes)"
vector 158  Net80211test.host[5].udp  droppedPkWrongPort:vector(count)  ETV
attr interpolationmode  none
attr title  "packets dropped (wrong port), vector(count)"
vector 58  Net80211test.host[2].udpApp[0]  sentPk:vector(packetBytes)  ETV
attr interpolationmode  none
attr source  sentPk
attr title  "packets sent, vector(packetBytes)"
vector 68  Net80211test.host[2].udp  sentPk:vector(packetBytes)  ETV
attr interpolationmode  none
attr source  sentPk
attr title  "packets sent, vector(packetBytes)"
vector 76  Net80211test.host[2].lo0.lo  rcvdPkFromHL:vector(packetBytes)  ETV
attr interpolationmode  none
attr source  packetReceivedFromUpper
attr title  "packets received from higher layer, vector(packetBytes)"
vector 77  Net80211test.host[2].lo0.lo  passedUpPk:vector(packetBytes)  ETV
attr interpolationmode  none
attr source  packetSentToUpper
attr title  "packets passed to higher layer, vector(packetBytes)"
vector 80  Net80211test.host[2].wlan[0].mac  rcvdPkFromHL:vector(packetBytes)  ETV
attr interpolationmode  none
attr source  packetReceivedFromUpper
attr title  "packets received from higher layer, vector(packetBytes)"
vector 69  Net80211test.host[2].udp  rcvdPk:vector(packetBytes)  ETV
attr interpolationmode  none
attr source  rcvdPk
attr title  "packets received, vector(packetBytes)"
vector 70  Net80211test.host[2].udp  passedUpPk:vector(count)  ETV
attr interpolationmode  none
attr title  "packets passed up, vector(count)"
vector 59  Net80211test.host[2].udpApp[0]  rcvdPk:vector(packetBytes)  ETV
attr interpolationmode  none
attr source  rcvdPk
attr title  "packets received, vector(packetBytes)"
vector 62  Net80211test.host[2].udpApp[0]  endToEndDelay:vector  ETV
attr interpolationmode  none
attr source  messageAge(rcvdPk)
attr title  "delay, vector"
attr unit  s
vector 79  Net80211test.host[2].wlan[0].mac  sentDownPk:vector(packetBytes)  ETV
attr interpolationmode  none
attr source  packetSentToLower
attr title  "packets sent to lower layer, vector(packetBytes)"
vector 84  Net80211test.host[2].wlan[0].radio  transmissionState:vector  ETV
attr interpolationmode  sample-hold
attr source  transmissionStateChanged
attr title  "Radio transmission state, vector"
vector 52  Net80211test.host[1].wlan[0].mac  rcvdPkFromLL:vector(packetBytes)  ETV
attr interpolationmode  none
attr source  packetReceivedFromLower
attr title  "packets received from lower layer, vector(packetBytes)"
vector 49  Net80211test.host[1].wlan[0].mac  passedUpPk:vector(packetBytes)  ETV
attr interpolationmode  none
attr source  packetSentToUpper
attr title  "packets passed to higher layer, vector(packetBytes)"
vector 40  Net80211test.host[1].udp  rcvdPk:vector(packetBytes)  ETV
attr interpolationmode  none
attr source  rcvdPk
attr title  "packets received, vector(packetBytes)"
vector 42  Net80211test.host[1].udp  droppedPkWrongPort:vector(count)  ETV
attr interpolationmode  none
attr title  "packets dropped (wrong port), vector(count)"
vector 110  Net80211test.host[3].wlan[0].mac  rcvdPkFromLL:vector(packetBytes)  ETV
attr interpolationmode  none
attr source  packetReceivedFromLower
attr title  "packets received from lower layer, vector(packetBytes)"
vector 107  Net80211test.host[3].wlan[0].mac  passedUpPk:vector(packetBytes)  ETV
attr interpolationmode  none
attr source  packetSentToUpper
attr title  "packets passed to higher layer, vector(packetBytes)"
vector 98  Net80211test.host[3].udp  rcvdPk:vector(packetBytes)  ETV
attr interpolationmode  none
attr source  rcvdPk
attr title  "packets received, vector(packetBytes)"
vector 100  Net80211test.host[3].udp  droppedPkWrongPort:vector(count)  ETV
attr interpolationmode  none
attr title  "packets dropped (wrong port), vector(count)"
vector 116  Net80211test.host[4].udpApp[0]  sentPk:vector(packetBytes)  ETV
attr interpolationmode  none
attr source  sentPk
attr title  "packets sent, vector(packetBytes)"
vector 126  Net80211test.host[4].udp  sentPk:vector(packetBytes)  ETV
attr interpolationmode  none
attr source  sentPk
attr title  "packets sent, vector(packetBytes)"
vector 134  Net80211test.host[4].lo0.lo  rcvdPkFromHL:vector(packetBytes)  ETV
attr interpolationmode  none
attr source  packetReceivedFromUpper
attr title  "packets received from higher layer, vector(packetBytes)"
vector 135  Net80211test.host[4].lo0.lo  passedUpPk:vector(packetBytes)  ETV
attr interpolationmode  none
attr source  packetSentToUpper
attr title  "packets passed to higher layer, vector(packetBytes)"
vector 138  Net80211test.host[4].wlan[0].mac  rcvdPkFromHL:vector(packetBytes)  ETV
attr interpolationmode  none
attr source  packetReceivedFromUpper
attr title  "packets received from higher layer, vector(packetBytes)"
vector 128  Net80211test.host[4].udp  passedUpPk:vector(count)  ETV
attr interpolationmode  none
attr title  "packets passed up, vector(count)"
vector 117  Net80211test.host[4].udpApp[0]  rcvdPk:vector(packetBytes)  ETV
attr interpolationmode  none
attr source  rcvdPk
attr title  "packets received, vector(packetBytes)"
vector 120  Net80211test.host[4].udpApp[0]  endToEndDelay:vector  ETV
attr interpolationmode  none
attr source  messageAge(rcvdPk)
attr title  "delay, vector"
attr unit  s
vector 137  Net80211test.host[4].wlan[0].mac  sentDownPk:vector(packetBytes)  ETV
attr interpolationmode  none
attr source  packetSentToLower
attr title  "packets sent to lower layer, vector(packetBytes)"
vector 142  Net80211test.host[4].wlan[0].radio  transmissionState:vector  ETV
attr interpolationmode  sample-hold
attr source  transmissionStateChanged
attr title  "Radio transmission state, vector"
vector 23  Net80211test.host[0].wlan[0].mac  rcvdPkFromLL:vector(packetBytes)  ETV
attr interpolationmode  none
attr source  packetReceivedFromLower
attr title  "packets received from lower layer, vector(packetBytes)"
vector 20  Net80211test.host[0].wlan[0].mac  passedUpPk:vector(packetBytes)  ETV
attr interpolationmode  none
attr source  packetSentToUpper
attr title  "packets passed to higher layer, vector(packetBytes)"
vector 87  Net80211test.host[3].udpApp[0]  sentPk:vector(packetBytes)  ETV
attr interpolationmode  none
attr source  sentPk
attr title  "packets sent, vector(packetBytes)"
vector 97  Net80211test.host[3].udp  sentPk:vector(packetBytes)  ETV
attr interpolationmode  none
attr source  sentPk
attr title  "packets sent, vector(packetBytes)"
vector 105  Net80211test.host[3].lo0.lo  rcvdPkFromHL:vector(packetBytes)  ETV
attr interpolationmode  none
attr source  packetReceivedFromUpper
attr title  "packets received from higher layer, vector(packetBytes)"
vector 106  Net80211test.host[3].lo0.lo  passedUpPk:vector(packetBytes)  ETV
attr interpolationmode  none
attr source  packetSentToUpper
attr title  "packets passed to higher layer, vector(packetBytes)"
vector 109  Net80211test.host[3].wlan[0].mac  rcvdPkFromHL:vector(packetBytes)  ETV
attr interpolationmode  none
attr source  packetReceivedFromUpper
attr title  "packets received from higher layer, vector(packetBytes)"
vector 99  Net80211test.host[3].udp  passedUpPk:vector(count)  ETV
attr interpolationmode  none
attr title  "packets passed up, vector(count)"
vector 88  Net80211test.host[3].udpApp[0]  rcvdPk:vector(packetBytes)  ETV
attr interpolationmode  none
attr source  rcvdPk
attr title  "packets received, vector(packetBytes)"
vector 91  Net80211test.host[3].udpApp[0]  endToEndDelay:vector  ETV
attr interpolationmode  none
attr source  messageAge(rcvdPk)
attr title  "delay, vector"
attr unit  s
vector 108  Net80211test.host[3].wlan[0].mac  sentDownPk:vector(packetBytes)  ETV
attr interpolationmode  none
attr source  packetSentToLower
attr title  "packets sent to lower layer, vector(packetBytes)"
vector 113  Net80211test.host[3].wlan[0].radio  transmissionState:vector  ETV
attr interpolationmode  sample-hold
attr source  transmissionStateChanged
attr title  "Radio transmission state, vector"
vector 81  Net80211test.host[2].wlan[0].mac  rcvdPkFromLL:vector(packetBytes)  ETV
attr interpolationmode  none
attr source  packetReceivedFromLower
attr title  "packets received from lower layer, vector(packetBytes)"
vector 78  Net80211test.host[2].wlan[0].mac  passedUpPk:vector(packetBytes)  ETV
attr interpolationmode  none
attr source  packetSentToUpper
attr title  "packets passed to higher layer, vector(packetBytes)"
vector 145  Net80211test.host[5].udpApp[0]  sentPk:vector(packetBytes)  ETV
attr interpolationmode  none
attr source  sentPk
attr title  "packets sent, vector(packetBytes)"
vector 155  Net80211test.host[5].udp  sentPk:vector(packetBytes)  ETV
attr interpolationmode  none
attr source  sentPk
attr title  "packets sent, vector(packetBytes)"
vector 163  Net80211test.host[5].lo0.lo  rcvdPkFromHL:vector(packetBytes)  ETV
attr interpolationmode  none
attr source  packetReceivedFromUpper
attr title  "packets received from higher layer, vector(packetBytes)"
vector 164  Net80211test.host[5].lo0.lo  passedUpPk:vector(packetBytes)  ETV
attr interpolationmode  none
attr source  packetSentToUpper
attr title  "packets passed to higher layer, vector(packetBytes)"
vector 167  Net80211test.host[5].wlan[0].mac  rcvdPkFromHL:vector(packetBytes)  ETV
attr interpolationmode  none
attr source  packetReceivedFromUpper
attr title  "packets received from higher layer, vector(packetBytes)"
vector 157  Net80211test.host[5].udp  passedUpPk:vector(count)  ETV
attr interpolationmode  none
attr title  "packets passed up, vector(count)"
vector 146  Net80211test.host[5].udpApp[0]  rcvdPk:vector(packetBytes)  ETV
attr interpolationmode  none
attr source  rcvdPk
attr title  "packets received, vector(packetBytes)"
vector 149  Net80211test.host[5].udpApp[0]  endToEndDelay:vector  ETV
attr interpolationmode  none
attr source  messageAge(rcvdPk)
attr title  "delay, vector"
attr unit  s
vector 166  Net80211test.host[5].wlan[0].mac  sentDownPk:vector(packetBytes)  ETV
attr interpolationmode  none
attr source  packetSentToLower
attr title  "packets sent to lower layer, vector(packetBytes)"
vector 171  Net80211test.host[5].wlan[0].radio  transmissionState:vector  ETV
attr interpolationmode  sample-hold
attr source  transmissionStateChanged
attr title  "Radio transmission state, vector"
vector 29  Net80211test.host[1].udpApp[0]  sentPk:vector(packetBytes)  ETV
attr interpolationmode  none
attr source  sentPk
attr title  "packets sent, vector(packetBytes)"
vector 39  Net80211test.host[1].udp  sentPk:vector(packetBytes)  ETV
attr interpolationmode  none
attr source  sentPk
attr title  "packets sent, vector(packetBytes)"
vector 47  Net80211test.host[1].lo0.lo  rcvdPkFromHL:vector(packetBytes)  ETV
attr interpolationmode  none
attr source  packetReceivedFromUpper
attr title  "packets received from higher layer, vector(packetBytes)"
vector 48  Net80211test.host[1].lo0.lo  passedUpPk:vector(packetBytes)  ETV
attr interpolationmode  none
attr source  packetSentToUpper
attr title  "packets passed to higher layer, vector(packetBytes)"
vector 51  Net80211test.host[1].wlan[0].mac  rcvdPkFromHL:vector(packetBytes)  ETV
attr interpolationmode  none
attr source  packetReceivedFromUpper
attr title  "packets received from higher layer, vector(packetBytes)"
vector 41  Net80211test.host[1].udp  passedUpPk:vector(count)  ETV
attr interpolationmode  none
attr title  "packets passed up, vector(count)"
vector 30  Net80211test.host[1].udpApp[0]  rcvdPk:vector(packetBytes)  ETV
attr interpolationmode  none
attr source  rcvdPk
attr title  "packets received, vector(packetBytes)"
vector 33  Net80211test.host[1].udpApp[0]  endToEndDelay:vector  ETV
attr interpolationmode  none
attr source  messageAge(rcvdPk)
attr title  "delay, vector"
attr unit  s
vector 50  Net80211test.host[1].wlan[0].mac  sentDownPk:vector(packetBytes)  ETV
attr interpolationmode  none
attr source  packetSentToLower
attr title  "packets sent to lower layer, vector(packetBytes)"
vector 55  Net80211test.host[1].wlan[0].radio  transmissionState:vector  ETV
attr interpolationmode  sample-hold
attr source  transmissionStateChanged
attr title  "Radio transmission state, vector"
0	490	3.947009828233	1250
0	632	4.447009828233	1250
0	1129	5.921516748809	1250
0	1395	6.421516748809	1250
0	1839	7.867414385998	1250
0	2018	8.367414385998	1250
0	2582	10.063784544095	1250
0	2839	10.563784544095	1250
0	3396	12.189971289849	1250
0	3607	12.689971289849	1250
0	4071	14.199632994036	1250
0	4276	14.699632994036	1250
0	4775	16.219121766372	1250
0	4970	16.719121766372	1250
0	5500	18.404358732587	1250
0	5696	18.904358732587	1250
0	6156	20.410235530372	1250
0	6346	20.910235530372	1250
0	6895	22.602053216319	1250
0	7090	23.102053216319	1250
0	7537	24.582711429364	1250
0	7764	25.082711429364	1250
0	8183	26.520015858379	1250
0	8383	27.020015858379	1250
0	8845	28.567004329875	1250
0	9042	29.067004329875	1250
0	9510	30.719009472323	1250
0	9736	31.219009472323	1250
0	10136	32.545999312436	1250
0	10327	33.045999312436	1250
0	10808	34.627489878918	1250
0	11003	35.127489878918	1250
0	11489	36.65991772717	1250
0	11689	37.15991772717	1250
0	12063	38.36087568244	1250
0	12268	38.86087568244	1250
0	12849	40.50169501158	1250
0	13029	41.00169501158	1250
0	13580	42.540487476415	1250
0	13761	43.040487476415	1250
0	14316	44.609957534752	1250
0	14496	45.109957534752	1250
0	14969	46.674852184738	1250
0	15176	47.174852184738	1250
0	15715	48.80533701542	1250
0	15930	49.30533701542	1250
0	16424	50.825593763632	1250
0	16659	51.325593763632	1250
0	17268	52.912490521998	1250
0	17432	53.412490521998	1250
0	18055	54.944186493028	1250
0	18213	55.444186493028	1250
0	18885	57.076581248455	1250
0	19037	57.576581248455	1250
0	19753	59.227531482323	1250
0	19901	59.727531482323	1250
0	20541	61.330397117126	1250
0	20719	61.830397117126	1250
0	21314	63.416261367139	1250
1	501	3.947009828233	1250
1	641	4.447009828233	1250
1	712	4.635164193637	1250
1	894	5.135164227229	1250
1	1138	5.921516748809	1250
1	1404	6.421516748809	1250
1	1483	6.672815053304	1250
1	1669	7.172815072358	1250
1	1848	7.867414385998	1250
1	2027	8.367414385998	1250
1	2198	8.6958413362	1250
1	2384	9.195841382871	1250
1	2591	10.063784544095	1250
1	2848	10.563784544095	1250
1	2900	10.611085094366	1250
1	3083	11.111085141987	1250
1	3405	12.189971289849	1250
1	3531	12.484392377047	1250
1	3616	12.689971289849	1250
1	3742	12.984392375922	1250
1	4080	14.199632994036	1250
1	4267	14.669208733938	1250
1	4285	14.699632994036	1250
1	4483	15.169208765183	1250
1	4784	16.219121766372	1250
1	4979	16.719121766372	1250
1	5509	18.404358732587	1250
1	5705	18.904358732587	1250
1	6165	20.410235530372	1250
1	6355	20.910235530372	1250
1	6904	22.602053216319	1250
1	7099	23.102053216319	1250
1	7546	24.582711429364	1250
1	7773	25.082711429364	1250
1	7909	25.508992917831	1250
1	8192	26.520015858379	1250
1	8392	27.020015858379	1250
1	8450	27.115456454868	1250
1	8583	27.615456398522	1250
1	8854	28.567004329875	1250
1	9051	29.067004329875	1250
1	9115	29.215829154979	1250
1	9243	29.715829116152	1250
1	9519	30.719009472323	1250
1	9717	31.107380271389	1250
1	9745	31.219009472323	1250
1	9876	31.607380237995	1250
1	10145	32.545999312436	1250
1	10306	32.979169511728	1250
1	10336	33.045999312436	1250
1	10472	33.479169482404	1250
1	10817	34.627489878918	1250
1	10962	34.881125861522	1250
1	11012	35.127489878918	1250
1	11126	35.381125882434	1250
1	11498	36.65991772717	1250
1	11601	36.812874339463	1250
1	11698	37.15991772717	1250
1	11766	37.312874387869	1250
1	12072	38.36087568244	1250
1	12277	38.86087568244	1250
1	12332	38.935608023109	1250
1	12465	39.435608073365	1250
1	12797	40.424001408068	1250
1	12858	40.50169501158	1250
1	13038	41.00169501158	1250
1	13098	41.079951152953	1250
1	13237	41.579951172599	1250
1	13326	41.915337469526	1250
1	13514	42.415337416933	1250
1	13589	42.540487476415	1250
1	13770	43.040487476415	1250
1	13835	43.104379588403	1250
1	13972	43.604379633351	1250
1	14103	44.037954648717	1250
1	14287	44.537954650214	1250
1	14325	44.609957534752	1250
1	14505	45.109957534752	1250
1	14833	46.176802699781	1250
1	14978	46.674852184738	1250
1	15031	46.676802733776	1250
1	15185	47.174852184738	1250
1	15250	47.228707008242	1250
1	15352	47.726334150058	1250
1	15387	47.728706973395	1250
1	15531	48.226334126051	1250
1	15581	48.351328970843	1250
1	15724	48.80533701542	1250
1	15792	48.851328999619	1250
1	15879	48.983467835311	1250
1	15939	49.30533701542	1250
1	16024	49.483467781672	1250
1	16112	49.921473735304	1250
1	16262	50.407863193062	1250
1	16291	50.421473658218	1250
1	16341	50.461866355058	1250
1	16433	50.825593763632	1250
1	16519	50.907863105692	1250
1	16562	50.96186637127	1250
1	16624	51.102390498942	1250
1	16668	51.325593763632	1250
1	16772	51.60239047788	1250
1	16844	51.924032103479	1250
1	16973	52.3267376585	1250
1	17034	52.4068436273	1250
1	17069	52.424032065581	1250
1	17147	52.695618533397	1250
1	17197	52.826737612559	1250
1	17259	52.906843634691	1250
1	17277	52.912490521998	1250
1	17386	53.168539536007	1250
1	17441	53.412490521998	1250
1	17543	53.668539546279	1250
1	17625	53.985589873642	1250
1	17704	54.211114919436	1250
1	17738	54.25407654232	1250
1	17811	54.336068403798	1250
1	17860	54.485589864789	1250
1	17964	54.754076530799	1250
1	18037	54.836068398253	1250
1	18064	54.944186493028	1250
1	18173	55.185257385838	1250
1	18222	55.444186493028	1250
1	18325	55.685257389975	1250
1	18411	56.027375750368	1250
1	18497	56.242668789872	1250
1	18572	56.309416218031	1250
1	18655	56.527375810454	1250
1	18742	56.742668783346	1250
1	18817	56.809416206806	1250
1	18894	57.076581248455	1250
1	18980	57.237394060792	1250
1	19046	57.576581248455	1250
1	19138	57.737394078487	1250
1	19209	57.942889039302	1250
1	19331	58.136083664469	1250
1	19376	58.268505684064	1250
1	19459	58.442889091975	1250
1	19575	58.636083700089	1250
1	19620	58.768505696417	1250
1	19739	59.189373090325	1250
1	19762	59.227531482323	1250
1	19886	59.68937309183	1250
1	19910	59.727531482323	1250
1	19996	59.870424906618	1250
1	20101	60.123243051066	1250
1	20335	60.623243041838	1250
1	20514	61.182815679251	1250
1	20550	61.330397117126	1250
1	20658	61.68281567162	1250
1	20728	61.830397117126	1250
1	20800	61.98094463687	1250
1	21036	62.480944610894	1250
1	21261	63.093502043398	1250
1	21323	63.416261367139	1250
4	501	3.947009828233	0
4	641	4.447009828233	0
4	712	4.635164193637	0.000466132359
4	894	5.135164227229	0.000466165951
4	1138	5.921516748809	0
4	1404	6.421516748809	0
4	1483	6.672815053304	0.000466225037
4	1669	7.172815072358	0.000466244091
4	1848	7.867414385998	0
4	2027	8.367414385998	0
4	2198	8.6958413362	0.000466299816
4	2384	9.195841382871	0.000466346487
4	2591	10.063784544095	0
4	2848	10.563784544095	0
4	2900	10.611085094366	0.000466495547
4	3083	11.111085141987	0.000466543168
4	3405	12.189971289849	0
4	3531	12.484392377047	0.000466651773
4	3616	12.689971289849	0
4	3742	12.984392375922	0.000466650648
4	4080	14.199632994036	0
4	4267	14.669208733938	0.000466746244
4	4285	14.699632994036	0
4	4483	15.169208765183	0.000466777489
4	4784	16.219121766372	0
4	4979	16.719121766372	0
4	5509	18.404358732587	0
4	5705	18.904358732587	0
4	6165	20.410235530372	0
4	6355	20.910235530372	0
4	6904	22.602053216319	0
4	7099	23.102053216319	0
4	7546	24.582711429364	0
4	7773	25.082711429364	0
4	7909	25.508992917831	0.00046680894
4	8192	26.520015858379	0
4	8392	27.020015858379	0
4	8450	27.115456454868	0.000466667002
4	8583	27.615456398522	0.000466610656
4	8854	28.567004329875	0
4	9051	29.067004329875	0
4	9115	29.215829154979	0.000466467329
4	9243	29.715829116152	0.000466428502
4	9519	30.719009472323	0
4	9717	31.107380271389	0.000466300743
4	9745	31.219009472323	0
4	9876	31.607380237995	0.000466267349
4	10145	32.545999312436	0
4	10306	32.979169511728	0.000466182149
4	10336	33.045999312436	0
4	10472	33.479169482404	0.000466152825
4	10817	34.627489878918	0
4	10962	34.881125861522	0.000466113042
4	11012	35.127489878918	0
4	11126	35.381125882434	0.000466133954
4	11498	36.65991772717	0
4	11601	36.812874339463	0.000466244511
4	11698	37.15991772717	0
4	11766	37.312874387869	0.000466292917
4	12072	38.36087568244	0
4	12277	38.86087568244	0
4	12332	38.935608023109	0.000466496302
4	12465	39.435608073365	0.000466546558
4	12797	40.424001408068	0.000466769039
4	12858	40.50169501158	0
4	13038	41.00169501158	0
4	13098	41.079951152953	0.000466620505
4	13237	41.579951172599	0.000466640151
4	13326	41.915337469526	0.000466559844
4	13514	42.415337416933	0.000466507251
4	13589	42.540487476415	0
4	13770	43.040487476415	0
4	13835	43.104379588403	0.000466676292
4	13972	43.604379633351	0.00046672124
4	14103	44.037954648717	0.000466412833
4	14287	44.537954650214	0.00046641433
4	14325	44.609957534752	0
4	14505	45.109957534752	0
4	14833	46.176802699781	0.000466424216
4	14978	46.674852184738	0
4	15031	46.676802733776	0.000466458211
4	15185	47.174852184738	0
4	15250	47.228707008242	0.000466810809
4	15352	47.726334150058	0.000466821866
4	15387	47.728706973395	0.000466775962
4	15531	48.226334126051	0.000466797859
4	15581	48.351328970843	0.000466581328
4	15724	48.80533701542	0
4	15792	48.851328999619	0.000466610104
4	15879	48.983467835311	0.000466648433
4	15939	49.30533701542	0
4	16024	49.483467781672	0.000466594794
4	16112	49.921473735304	0.000466700908
4	16262	50.407863193062	0.000466785358
4	16291	50.421473658218	0.000466623822
4	16341	50.461866355058	0.000466675595
4	16433	50.825593763632	0
4	16519	50.907863105692	0.000466697988
4	16562	50.96186637127	0.000466691807
4	16624	51.102390498942	0.000466476856
4	16668	51.325593763632	0
4	16772	51.60239047788	0.000466455794
4	16844	51.924032103479	0.000466474642
4	16973	52.3267376585	0.000466468737
4	17034	52.4068436273	0.000466707561
4	17069	52.424032065581	0.000466436744
4	17147	52.695618533397	0.000466813364
4	17197	52.826737612559	0.000466422796
4	17259	52.906843634691	0.000466714952
4	17277	52.912490521998	0
4	17386	53.168539536007	0.000466467497
4	17441	53.412490521998	0
4	17543	53.668539546279	0.000466477769
4	17625	53.985589873642	0.000466345439
4	17704	54.211114919436	0.000466816717
4	17738	54.25407654232	0.000466368996
4	17811	54.336068403798	0.000466723406
4	17860	54.485589864789	0.000466336586
4	17964	54.754076530799	0.000466357475
4	18037	54.836068398253	0.000466717861
4	18064	54.944186493028	0
4	18173	55.185257385838	0.000466482301
4	18222	55.444186493028	0
4	18325	55.685257389975	0.000466486438
4	18411	56.027375750368	0.000466368069
4	18497	56.242668789872	0.000466684137
4	18572	56.309416218031	0.000466339127
4	18655	56.527375810454	0.000466428155
4	18742	56.742668783346	0.000466677611
4	18817	56.809416206806	0.000466327902
4	18894	57.076581248455	0
4	18980	57.237394060792	0.00046652733
4	19046	57.576581248455	0
4	19138	57.737394078487	0.000466545025
4	19209	57.942889039302	0.000466614274
4	19331	58.136083664469	0.000466764871
4	19376	58.268505684064	0.000466345012
4	19459	58.442889091975	0.000466666947
4	19575	58.636083700089	0.000466800491
4	19620	58.768505696417	0.000466357365
4	19739	59.189373090325	0.000466621742
4	19762	59.227531482323	0
4	19886	59.68937309183	0.000466623247
4	19910	59.727531482323	0
4	19996	59.870424906618	0.000466810393
4	20101	60.123243051066	0.000466355916
4	20335	60.623243041838	0.000466346688
4	20514	61.182815679251	0.000466621644
4	20550	61.330397117126	0
4	20658	61.68281567162	0.000466614013
4	20728	61.830397117126	0
4	20800	61.98094463687	0.000466329326
4	21036	62.480944610894	0.00046630335
4	21261	63.093502043398	0.000466559758
4	21323	63.416261367139	0
10	492	3.947009828233	1258
10	633	4.447009828233	1258
10	1130	5.921516748809	1258
10	1396	6.421516748809	1258
10	1840	7.867414385998	1258
10	2019	8.367414385998	1258
10	2583	10.063784544095	1258
10	2840	10.563784544095	1258
10	3397	12.189971289849	1258
10	3608	12.689971289849	1258
10	4072	14.199632994036	1258
10	4277	14.699632994036	1258
10	4776	16.219121766372	1258
10	4971	16.719121766372	1258
10	5501	18.404358732587	1258
10	5697	18.904358732587	1258
10	6157	20.410235530372	1258
10	6347	20.910235530372	1258
10	6896	22.602053216319	1258
10	7091	23.102053216319	1258
10	7538	24.582711429364	1258
10	7765	25.082711429364	1258
10	8184	26.520015858379	1258
10	8384	27.020015858379	1258
10	8846	28.567004329875	1258
10	9043	29.067004329875	1258
10	9511	30.719009472323	1258
10	9737	31.219009472323	1258
10	10137	32.545999312436	1258
10	10328	33.045999312436	1258
10	10809	34.627489878918	1258
10	11004	35.127489878918	1258
10	11490	36.65991772717	1258
10	11690	37.15991772717	1258
10	12064	38.36087568244	1258
10	12269	38.86087568244	1258
10	12850	40.50169501158	1258
10	13030	41.00169501158	1258
10	13581	42.540487476415	1258
10	13762	43.040487476415	1258
10	14317	44.609957534752	1258
10	14497	45.109957534752	1258
10	14970	46.674852184738	1258
10	15177	47.174852184738	1258
10	15716	48.80533701542	1258
10	15931	49.30533701542	1258
10	16425	50.825593763632	1258
10	16660	51.325593763632	1258
10	17269	52.912490521998	1258
10	17433	53.412490521998	1258
10	18056	54.944186493028	1258
10	18214	55.444186493028	1258
10	18886	57.076581248455	1258
10	19038	57.576581248455	1258
10	19754	59.227531482323	1258
10	19902	59.727531482323	1258
10	20542	61.330397117126	1258
10	20720	61.830397117126	1258
10	21315	63.416261367139	1258
11	499	3.947009828233	1258
11	639	4.447009828233	1258
11	711	4.635164193637	1258
11	893	5.135164227229	1258
11	1136	5.921516748809	1258
11	1402	6.421516748809	1258
11	1482	6.672815053304	1258
11	1668	7.172815072358	1258
11	1846	7.867414385998	1258
11	2025	8.367414385998	1258
11	2197	8.6958413362	1258
11	2383	9.195841382871	1258
11	2589	10.063784544095	1258
11	2846	10.563784544095	1258
11	2899	10.611085094366	1258
11	3082	11.111085141987	1258
11	3403	12.189971289849	1258
11	3530	12.484392377047	1258
11	3614	12.689971289849	1258
11	3741	12.984392375922	1258
11	4078	14.199632994036	1258
11	4266	14.669208733938	1258
11	4283	14.699632994036	1258
11	4482	15.169208765183	1258
11	4782	16.219121766372	1258
11	4977	16.719121766372	1258
11	5507	18.404358732587	1258
11	5703	18.904358732587	1258
11	6163	20.410235530372	1258
11	6353	20.910235530372	1258
11	6902	22.602053216319	1258
11	7097	23.102053216319	1258
11	7544	24.582711429364	1258
11	7771	25.082711429364	1258
11	7908	25.508992917831	1258
11	8190	26.520015858379	1258
11	8390	27.020015858379	1258
11	8449	27.115456454868	1258
11	8582	27.615456398522	1258
11	8852	28.567004329875	1258
11	9049	29.067004329875	1258
11	9114	29.215829154979	1258
11	9242	29.715829116152	1258
11	9517	30.719009472323	1258
11	9716	31.107380271389	1258
11	9743	31.219009472323	1258
11	9875	31.607380237995	1258
11	10143	32.545999312436	1258
11	10305	32.979169511728	1258
11	10334	33.045999312436	1258
11	10471	33.479169482404	1258
11	10815	34.627489878918	1258
11	10961	34.881125861522	1258
11	11010	35.127489878918	1258
11	11125	35.381125882434	1258
11	11496	36.65991772717	1258
11	11600	36.812874339463	1258
11	11696	37.15991772717	1258
11	11765	37.312874387869	1258
11	12070	38.36087568244	1258
11	12275	38.86087568244	1258
11	12331	38.935608023109	1258
11	12464	39.435608073365	1258
11	12796	40.424001408068	1258
11	12856	40.50169501158	1258
11	13036	41.00169501158	1258
11	13097	41.079951152953	1258
11	13236	41.579951172599	1258
11	13325	41.915337469526	1258
11	13513	42.415337416933	1258
11	13587	42.540487476415	1258
11	13768	43.040487476415	1258
11	13834	43.104379588403	1258
11	13971	43.604379633351	1258
11	14102	44.037954648717	1258
11	14286	44.537954650214	1258
11	14323	44.609957534752	1258
11	14503	45.109957534752	1258
11	14832	46.176802699781	1258
11	14976	46.674852184738	1258
11	15030	46.676802733776	1258
11	15183	47.174852184738	1258
11	15249	47.228707008242	1258
11	15351	47.726334150058	1258
11	15386	47.728706973395	1258
11	15530	48.226334126051	1258
11	15580	48.351328970843	1258
11	15722	48.80533701542	1258
11	15791	48.851328999619	1258
11	15878	48.983467835311	1258
11	15937	49.30533701542	1258
11	16023	49.483467781672	1258
11	16111	49.921473735304	1258
11	16261	50.407863193062	1258
11	16290	50.421473658218	1258
11	16340	50.461866355058	1258
11	16431	50.825593763632	1258
11	16518	50.907863105692	1258
11	16561	50.96186637127	1258
11	16623	51.102390498942	1258
11	16666	51.325593763632	1258
11	16771	51.60239047788	1258
11	16843	51.924032103479	1258
11	16972	52.3267376585	1258
11	17033	52.4068436273	1258
11	17068	52.424032065581	1258
11	17146	52.695618533397	1258
11	17196	52.826737612559	1258
11	17258	52.906843634691	1258
11	17275	52.912490521998	1258
11	17385	53.168539536007	1258
11	17439	53.412490521998	1258
11	17542	53.668539546279	1258
11	17624	53.985589873642	1258
11	17703	54.211114919436	1258
11	17737	54.25407654232	1258
11	17810	54.336068403798	1258
11	17859	54.485589864789	1258
11	17963	54.754076530799	1258
11	18036	54.836068398253	1258
11	18062	54.944186493028	1258
11	18172	55.185257385838	1258
11	18220	55.444186493028	1258
11	18324	55.685257389975	1258
11	18410	56.027375750368	1258
11	18496	56.242668789872	1258
11	18571	56.309416218031	1258
11	18654	56.527375810454	1258
11	18741	56.742668783346	1258
11	18816	56.809416206806	1258
11	18892	57.076581248455	1258
11	18979	57.237394060792	1258
11	19044	57.576581248455	1258
11	19137	57.737394078487	1258
11	19208	57.942889039302	1258
11	19330	58.136083664469	1258
11	19375	58.268505684064	1258
11	19458	58.442889091975	1258
11	19574	58.636083700089	1258
11	19619	58.768505696417	1258
11	19738	59.189373090325	1258
11	19760	59.227531482323	1258
11	19885	59.68937309183	1258
11	19908	59.727531482323	1258
11	19995	59.870424906618	1258
11	20100	60.123243051066	1258
11	20334	60.623243041838	1258
11	20513	61.182815679251	1258
11	20548	61.330397117126	1258
11	20657	61.68281567162	1258
11	20726	61.830397117126	1258
11	20799	61.98094463687	1258
11	21035	62.480944610894	1258
11	21260	63.093502043398	1258
11	21321	63.416261367139	1258
12	499	3.947009828233	1
12	639	4.447009828233	2
12	711	4.635164193637	3
12	893	5.135164227229	4
12	1136	5.921516748809	5
12	1402	6.421516748809	6
12	1482	6.672815053304	7
12	1668	7.172815072358	8
12	1846	7.867414385998	9
12	2025	8.367414385998	10
12	2197	8.6958413362	11
12	2383	9.195841382871	12
12	2589	10.063784544095	13
12	2846	10.563784544095	14
12	2899	10.611085094366	15
12	3082	11.111085141987	16
12	3403	12.189971289849	17
12	3530	12.484392377047	18
12	3614	12.689971289849	19
12	3741	12.984392375922	20
12	4078	14.199632994036	21
12	4266	14.669208733938	22
12	4283	14.699632994036	23
12	4482	15.169208765183	24
12	4782	16.219121766372	25
12	4977	16.719121766372	26
12	5507	18.404358732587	27
12	5703	18.904358732587	28
12	6163	20.410235530372	29
12	6353	20.910235530372	30
12	6902	22.602053216319	31
12	7097	23.102053216319	32
12	7544	24.582711429364	33
12	7771	25.082711429364	34
12	7908	25.508992917831	35
12	8190	26.520015858379	36
12	8390	27.020015858379	37
12	8449	27.115456454868	38
12	8582	27.615456398522	39
12	8852	28.567004329875	40
12	9049	29.067004329875	41
12	9114	29.215829154979	42
12	9242	29.715829116152	43
12	9517	30.719009472323	44
12	9716	31.107380271389	45
12	9743	31.219009472323	46
12	9875	31.607380237995	47
12	10143	32.545999312436	48
12	10305	32.979169511728	49
12	10334	33.045999312436	50
12	10471	33.479169482404	51
12	10815	34.627489878918	52
12	10961	34.881125861522	53
12	11010	35.127489878918	54
12	11125	35.381125882434	55
12	11496	36.65991772717	56
12	11600	36.812874339463	57
12	11696	37.15991772717	58
12	11765	37.312874387869	59
12	12070	38.36087568244	60
12	12275	38.86087568244	61
12	12331	38.935608023109	62
12	12464	39.435608073365	63
12	12796	40.424001408068	64
12	12856	40.50169501158	65
12	13036	41.00169501158	66
12	13097	41.079951152953	67
12	13236	41.579951172599	68
12	13325	41.915337469526	69
12	13513	42.415337416933	70
12	13587	42.540487476415	71
12	13768	43.040487476415	72
12	13834	43.104379588403	73
12	13971	43.604379633351	74
12	14102	44.037954648717	75
12	14286	44.537954650214	76
12	14323	44.609957534752	77
12	14503	45.109957534752	78
12	14832	46.176802699781	79
12	14976	46.674852184738	80
12	15030	46.676802733776	81
12	15183	47.174852184738	82
12	15249	47.228707008242	83
12	15351	47.726334150058	84
12	15386	47.728706973395	85
12	15530	48.226334126051	86
12	15580	48.351328970843	87
12	15722	48.80533701542	88
12	15791	48.851328999619	89
12	15878	48.983467835311	90
12	15937	49.30533701542	91
12	16023	49.483467781672	92
12	16111	49.921473735304	93
12	16261	50.407863193062	94
12	16290	50.421473658218	95
12	16340	50.461866355058	96
12	16431	50.825593763632	97
12	16518	50.907863105692	98
12	16561	50.96186637127	99
12	16623	51.102390498942	100
12	16666	51.325593763632	101
12	16771	51.60239047788	102
12	16843	51.924032103479	103
12	16972	52.3267376585	104
12	17033	52.4068436273	105
12	17068	52.424032065581	106
12	17146	52.695618533397	107
12	17196	52.826737612559	108
12	17258	52.906843634691	109
12	17275	52.912490521998	110
12	17385	53.168539536007	111
12	17439	53.412490521998	112
12	17542	53.668539546279	113
12	17624	53.985589873642	114
12	17703	54.211114919436	115
12	17737	54.25407654232	116
12	17810	54.336068403798	117
12	17859	54.485589864789	118
12	17963	54.754076530799	119
12	18036	54.836068398253	120
12	18062	54.944186493028	121
12	18172	55.185257385838	122
12	18220	55.444186493028	123
12	18324	55.685257389975	124
12	18410	56.027375750368	125
12	18496	56.242668789872	126
12	18571	56.309416218031	127
12	18654	56.527375810454	128
12	18741	56.742668783346	129
12	18816	56.809416206806	130
12	18892	57.076581248455	131
12	18979	57.237394060792	132
12	19044	57.576581248455	133
12	19137	57.737394078487	134
12	19208	57.942889039302	135
12	19330	58.136083664469	136
12	19375	58.268505684064	137
12	19458	58.442889091975	138
12	19574	58.636083700089	139
12	19619	58.768505696417	140
12	19738	59.189373090325	141
12	19760	59.227531482323	142
12	19885	59.68937309183	143
12	19908	59.727531482323	144
12	19995	59.870424906618	145
12	20100	60.123243051066	146
12	20334	60.623243041838	147
12	20513	61.182815679251	148
12	20548	61.330397117126	149
12	20657	61.68281567162	150
12	20726	61.830397117126	151
12	20799	61.98094463687	152
12	21035	62.480944610894	153
12	21260	63.093502043398	154
12	21321	63.416261367139	155
18	495	3.947009828233	1278
18	635	4.447009828233	1278
18	1132	5.921516748809	1278
18	1398	6.421516748809	1278
18	1842	7.867414385998	1278
18	2021	8.367414385998	1278
18	2585	10.063784544095	1278
18	2842	10.563784544095	1278
18	3399	12.189971289849	1278
18	3610	12.689971289849	1278
18	4074	14.199632994036	1278
18	4279	14.699632994036	1278
18	4778	16.219121766372	1278
18	4973	16.719121766372	1278
18	5503	18.404358732587	1278
18	5699	18.904358732587	1278
18	6159	20.410235530372	1278
18	6349	20.910235530372	1278
18	6898	22.602053216319	1278
18	7093	23.102053216319	1278
18	7540	24.582711429364	1278
18	7767	25.082711429364	1278
18	8186	26.520015858379	1278
18	8386	27.020015858379	1278
18	8848	28.567004329875	1278
18	9045	29.067004329875	1278
18	9513	30.719009472323	1278
18	9739	31.219009472323	1278
18	10139	32.545999312436	1278
18	10330	33.045999312436	1278
18	10811	34.627489878918	1278
18	11006	35.127489878918	1278
18	11492	36.65991772717	1278
18	11692	37.15991772717	1278
18	12066	38.36087568244	1278
18	12271	38.86087568244	1278
18	12852	40.50169501158	1278
18	13032	41.00169501158	1278
18	13583	42.540487476415	1278
18	13764	43.040487476415	1278
18	14319	44.609957534752	1278
18	14499	45.109957534752	1278
18	14972	46.674852184738	1278
18	15179	47.174852184738	1278
18	15718	48.80533701542	1278
18	15933	49.30533701542	1278
18	16427	50.825593763632	1278
18	16662	51.325593763632	1278
18	17271	52.912490521998	1278
18	17435	53.412490521998	1278
18	18058	54.944186493028	1278
18	18216	55.444186493028	1278
18	18888	57.076581248455	1278
18	19040	57.576581248455	1278
18	19756	59.227531482323	1278
18	19904	59.727531482323	1278
18	20544	61.330397117126	1278
18	20722	61.830397117126	1278
18	21317	63.416261367139	1278
19	495	3.947009828233	1278
19	635	4.447009828233	1278
19	1132	5.921516748809	1278
19	1398	6.421516748809	1278
19	1842	7.867414385998	1278
19	2021	8.367414385998	1278
19	2585	10.063784544095	1278
19	2842	10.563784544095	1278
19	3399	12.189971289849	1278
19	3610	12.689971289849	1278
19	4074	14.199632994036	1278
19	4279	14.699632994036	1278
19	4778	16.219121766372	1278
19	4973	16.719121766372	1278
19	5503	18.404358732587	1278
19	5699	18.904358732587	1278
19	6159	20.410235530372	1278
19	6349	20.910235530372	1278
19	6898	22.602053216319	1278
19	7093	23.102053216319	1278
19	7540	24.582711429364	1278
19	7767	25.082711429364	1278
19	8186	26.520015858379	1278
19	8386	27.020015858379	1278
19	8848	28.567004329875	1278
19	9045	29.067004329875	1278
19	9513	30.719009472323	1278
19	9739	31.219009472323	1278
19	10139	32.545999312436	1278
19	10330	33.045999312436	1278
19	10811	34.627489878918	1278
19	11006	35.127489878918	1278
19	11492	36.65991772717	1278
19	11692	37.15991772717	1278
19	12066	38.36087568244	1278
19	12271	38.86087568244	1278
19	12852	40.50169501158	1278
19	13032	41.00169501158	1278
19	13583	42.540487476415	1278
19	13764	43.040487476415	1278
19	14319	44.609957534752	1278
19	14499	45.109957534752	1278
19	14972	46.674852184738	1278
19	15179	47.174852184738	1278
19	15718	48.80533701542	1278
19	15933	49.30533701542	1278
19	16427	50.825593763632	1278
19	16662	51.325593763632	1278
19	17271	52.912490521998	1278
19	17435	53.412490521998	1278
19	18058	54.944186493028	1278
19	18216	55.444186493028	1278
19	18888	57.076581248455	1278
19	19040	57.576581248455	1278
19	19756	59.227531482323	1278
19	19904	59.727531482323	1278
19	20544	61.330397117126	1278
19	20722	61.830397117126	1278
19	21317	63.416261367139	1278
20	708	4.635164193637	1314
20	890	5.135164227229	1314
20	1479	6.672815053304	1314
20	1665	7.172815072358	1314
20	2194	8.6958413362	1314
20	2380	9.195841382871	1314
20	2896	10.611085094366	1314
20	3079	11.111085141987	1314
20	3527	12.484392377047	1314
20	3738	12.984392375922	1314
20	4263	14.669208733938	1314
20	4479	15.169208765183	1314
20	7905	25.508992917831	1314
20	8446	27.115456454868	1314
20	8579	27.615456398522	1314
20	9111	29.215829154979	1314
20	9239	29.715829116152	1314
20	9713	31.107380271389	1314
20	9872	31.607380237995	1314
20	10302	32.979169511728	1314
20	10468	33.479169482404	1314
20	10958	34.881125861522	1314
20	11122	35.381125882434	1314
20	11597	36.812874339463	1314
20	11762	37.312874387869	1314
20	12328	38.935608023109	1314
20	12461	39.435608073365	1314
20	12793	40.424001408068	1314
20	13094	41.079951152953	1314
20	13233	41.579951172599	1314
20	13322	41.915337469526	1314
20	13510	42.415337416933	1314
20	13831	43.104379588403	1314
20	13968	43.604379633351	1314
20	14099	44.037954648717	1314
20	14283	44.537954650214	1314
20	14829	46.176802699781	1314
20	15027	46.676802733776	1314
20	15246	47.228707008242	1314
20	15348	47.726334150058	1314
20	15383	47.728706973395	1314
20	15527	48.226334126051	1314
20	15577	48.351328970843	1314
20	15788	48.851328999619	1314
20	15875	48.983467835311	1314
20	16020	49.483467781672	1314
20	16108	49.921473735304	1314
20	16258	50.407863193062	1314
20	16287	50.421473658218	1314
20	16337	50.461866355058	1314
20	16515	50.907863105692	1314
20	16558	50.96186637127	1314
20	16620	51.102390498942	1314
20	16768	51.60239047788	1314
20	16840	51.924032103479	1314
20	16969	52.3267376585	1314
20	17030	52.4068436273	1314
20	17065	52.424032065581	1314
20	17143	52.695618533397	1314
20	17193	52.826737612559	1314
20	17255	52.906843634691	1314
20	17382	53.168539536007	1314
20	17539	53.668539546279	1314
20	17621	53.985589873642	1314
20	17700	54.211114919436	1314
20	17734	54.25407654232	1314
20	17807	54.336068403798	1314
20	17856	54.485589864789	1314
20	17960	54.754076530799	1314
20	18033	54.836068398253	1314
20	18169	55.185257385838	1314
20	18321	55.685257389975	1314
20	18407	56.027375750368	1314
20	18493	56.242668789872	1314
20	18568	56.309416218031	1314
20	18651	56.527375810454	1314
20	18738	56.742668783346	1314
20	18813	56.809416206806	1314
20	18976	57.237394060792	1314
20	19134	57.737394078487	1314
20	19205	57.942889039302	1314
20	19327	58.136083664469	1314
20	19372	58.268505684064	1314
20	19455	58.442889091975	1314
20	19571	58.636083700089	1314
20	19616	58.768505696417	1314
20	19735	59.189373090325	1314
20	19882	59.68937309183	1314
20	19992	59.870424906618	1314
20	20097	60.123243051066	1314
20	20331	60.623243041838	1314
20	20510	61.182815679251	1314
20	20654	61.68281567162	1314
20	20796	61.98094463687	1314
20	21032	62.480944610894	1314
20	21257	63.093502043398	1314
21	502	3.947009828233	1314
21	642	4.447009828233	1314
21	1139	5.921516748809	1314
21	1405	6.421516748809	1314
21	1849	7.867414385998	1314
21	2028	8.367414385998	1314
21	2592	10.063784544095	1314
21	2849	10.563784544095	1314
21	3406	12.189971289849	1314
21	3617	12.689971289849	1314
21	4081	14.199632994036	1314
21	4286	14.699632994036	1314
21	4785	16.219121766372	1314
21	4980	16.719121766372	1314
21	5510	18.404358732587	1314
21	5706	18.904358732587	1314
21	6166	20.410235530372	1314
21	6356	20.910235530372	1314
21	6905	22.602053216319	1314
21	7100	23.102053216319	1314
21	7547	24.582711429364	1314
21	7774	25.082711429364	1314
21	8193	26.520015858379	1314
21	8393	27.020015858379	1314
21	8855	28.567004329875	1314
21	9052	29.067004329875	1314
21	9520	30.719009472323	1314
21	9746	31.219009472323	1314
21	10146	32.545999312436	1314
21	10337	33.045999312436	1314
21	10818	34.627489878918	1314
21	11013	35.127489878918	1314
21	11499	36.65991772717	1314
21	11699	37.15991772717	1314
21	12073	38.36087568244	1314
21	12278	38.86087568244	1314
21	12859	40.50169501158	1314
21	13039	41.00169501158	1314
21	13590	42.540487476415	1314
21	13771	43.040487476415	1314
21	14326	44.609957534752	1314
21	14506	45.109957534752	1314
21	14979	46.674852184738	1314
21	15186	47.174852184738	1314
21	15725	48.80533701542	1314
21	15940	49.30533701542	1314
21	16434	50.825593763632	1314
21	16669	51.325593763632	1314
21	17278	52.912490521998	1314
21	17442	53.412490521998	1314
21	18065	54.944186493028	1314
21	18223	55.444186493028	1314
21	18895	57.076581248455	1314
21	19047	57.576581248455	1314
21	19763	59.227531482323	1314
21	19911	59.727531482323	1314
21	20551	61.330397117126	1314
21	20729	61.830397117126	1314
21	21324	63.416261367139	1314
22	498	3.947009828233	1314
22	638	4.447009828233	1314
22	1135	5.921516748809	1314
22	1401	6.421516748809	1314
22	1845	7.867414385998	1314
22	2024	8.367414385998	1314
22	2588	10.063784544095	1314
22	2845	10.563784544095	1314
22	3402	12.189971289849	1314
22	3613	12.689971289849	1314
22	4077	14.199632994036	1314
22	4282	14.699632994036	1314
22	4781	16.219121766372	1314
22	4976	16.719121766372	1314
22	5506	18.404358732587	1314
22	5702	18.904358732587	1314
22	6162	20.410235530372	1314
22	6352	20.910235530372	1314
22	6901	22.602053216319	1314
22	7096	23.102053216319	1314
22	7543	24.582711429364	1314
22	7770	25.082711429364	1314
22	8189	26.520015858379	1314
22	8389	27.020015858379	1314
22	8851	28.567004329875	1314
22	9048	29.067004329875	1314
22	9516	30.719009472323	1314
22	9742	31.219009472323	1314
22	10142	32.545999312436	1314
22	10333	33.045999312436	1314
22	10814	34.627489878918	1314
22	11009	35.127489878918	1314
22	11495	36.65991772717	1314
22	11695	37.15991772717	1314
22	12069	38.36087568244	1314
22	12274	38.86087568244	1314
22	12855	40.50169501158	1314
22	13035	41.00169501158	1314
22	13586	42.540487476415	1314
22	13767	43.040487476415	1314
22	14322	44.609957534752	1314
22	14502	45.109957534752	1314
22	14975	46.674852184738	1314
22	15182	47.174852184738	1314
22	15721	48.80533701542	1314
22	15936	49.30533701542	1314
22	16430	50.825593763632	1314
22	16665	51.325593763632	1314
22	17274	52.912490521998	1314
22	17438	53.412490521998	1314
22	18061	54.944186493028	1314
22	18219	55.444186493028	1314
22	18891	57.076581248455	1314
22	19043	57.576581248455	1314
22	19759	59.227531482323	1314
22	19907	59.727531482323	1314
22	20547	61.330397117126	1314
22	20725	61.830397117126	1314
22	21320	63.416261367139	1314
23	708	4.635164193637	1314
23	890	5.135164227229	1314
23	1479	6.672815053304	1314
23	1665	7.172815072358	1314
23	2194	8.6958413362	1314
23	2380	9.195841382871	1314
23	2896	10.611085094366	1314
23	3079	11.111085141987	1314
23	3527	12.484392377047	1314
23	3738	12.984392375922	1314
23	4263	14.669208733938	1314
23	4479	15.169208765183	1314
23	7905	25.508992917831	1314
23	8446	27.115456454868	1314
23	8579	27.615456398522	1314
23	9111	29.215829154979	1314
23	9239	29.715829116152	1314
23	9713	31.107380271389	1314
23	9872	31.607380237995	1314
23	10302	32.979169511728	1314
23	10468	33.479169482404	1314
23	10958	34.881125861522	1314
23	11122	35.381125882434	1314
23	11597	36.812874339463	1314
23	11762	37.312874387869	1314
23	12328	38.935608023109	1314
23	12461	39.435608073365	1314
23	12793	40.424001408068	1314
23	13094	41.079951152953	1314
23	13233	41.579951172599	1314
23	13322	41.915337469526	1314
23	13510	42.415337416933	1314
23	13831	43.104379588403	1314
23	13968	43.604379633351	1314
23	14099	44.037954648717	1314
23	14283	44.537954650214	1314
23	14829	46.176802699781	1314
23	15027	46.676802733776	1314
23	15246	47.228707008242	1314
23	15348	47.726334150058	1314
23	15383	47.728706973395	1314
23	15527	48.226334126051	1314
23	15577	48.351328970843	1314
23	15788	48.851328999619	1314
23	15875	48.983467835311	1314
23	16020	49.483467781672	1314
23	16108	49.921473735304	1314
23	16258	50.407863193062	1314
23	16287	50.421473658218	1314
23	16337	50.461866355058	1314
23	16515	50.907863105692	1314
23	16558	50.96186637127	1314
23	16620	51.102390498942	1314
23	16768	51.60239047788	1314
23	16840	51.924032103479	1314
23	16969	52.3267376585	1314
23	17030	52.4068436273	1314
23	17065	52.424032065581	1314
23	17143	52.695618533397	1314
23	17193	52.826737612559	1314
23	17255	52.906843634691	1314
23	17382	53.168539536007	1314
23	17539	53.668539546279	1314
23	17621	53.985589873642	1314
23	17700	54.211114919436	1314
23	17734	54.25407654232	1314
23	17807	54.336068403798	1314
23	17856	54.485589864789	1314
23	17960	54.754076530799	1314
23	18033	54.836068398253	1314
23	18169	55.185257385838	1314
23	18321	55.685257389975	1314
23	18407	56.027375750368	1314
23	18493	56.242668789872	1314
23	18568	56.309416218031	1314
23	18651	56.527375810454	1314
23	18738	56.742668783346	1314
23	18813	56.809416206806	1314
23	18976	57.237394060792	1314
23	19134	57.737394078487	1314
23	19205	57.942889039302	1314
23	19327	58.136083664469	1314
23	19372	58.268505684064	1314
23	19455	58.442889091975	1314
23	19571	58.636083700089	1314
23	19616	58.768505696417	1314
23	19735	59.189373090325	1314
23	19882	59.68937309183	1314
23	19992	59.870424906618	1314
23	20097	60.123243051066	1314
23	20331	60.623243041838	1314
23	20510	61.182815679251	1314
23	20654	61.68281567162	1314
23	20796	61.98094463687	1314
23	21032	62.480944610894	1314
23	21257	63.093502043398	1314
24	0	0	0
24	0	0	2
24	503	3.947009828233	3
24	511	3.947475828233	2
24	643	4.447009828233	3
24	651	4.447475828233	2
24	1140	5.921516748809	3
24	1148	5.921982748809	2
24	1406	6.421516748809	3
24	1414	6.421982748809	2
24	1850	7.867414385998	3
24	1858	7.867880385998	2
24	2029	8.367414385998	3
24	2037	8.367880385998	2
24	2593	10.063784544095	3
24	2602	10.064250544095	2
24	2850	10.563784544095	3
24	2859	10.564250544095	2
24	3407	12.189971289849	3
24	3415	12.190437289849	2
24	3618	12.689971289849	3
24	3626	12.690437289849	2
24	4082	14.199632994036	3
24	4090	14.200098994036	2
24	4287	14.699632994036	3
24	4295	14.700098994036	2
24	4786	16.219121766372	3
24	4794	16.219587766372	2
24	4981	16.719121766372	3
24	4989	16.719587766372	2
24	5511	18.404358732587	3
24	5519	18.404824732587	2
24	5707	18.904358732587	3
24	5715	18.904824732587	2
24	6167	20.410235530372	3
24	6175	20.410701530372	2
24	6357	20.910235530372	3
24	6365	20.910701530372	2
24	6906	22.602053216319	3
24	6914	22.602519216319	2
24	7101	23.102053216319	3
24	7109	23.102519216319	2
24	7548	24.582711429364	3
24	7556	24.583177429364	2
24	7775	25.082711429364	3
24	7783	25.083177429364	2
24	8194	26.520015858379	3
24	8202	26.520481858379	2
24	8394	27.020015858379	3
24	8402	27.020481858379	2
24	8856	28.567004329875	3
24	8864	28.567470329875	2
24	9053	29.067004329875	3
24	9061	29.067470329875	2
24	9521	30.719009472323	3
24	9529	30.719475472323	2
24	9747	31.219009472323	3
24	9755	31.219475472323	2
24	10147	32.545999312436	3
24	10155	32.546465312436	2
24	10338	33.045999312436	3
24	10346	33.046465312436	2
24	10819	34.627489878918	3
24	10827	34.627955878918	2
24	11014	35.127489878918	3
24	11022	35.127955878918	2
24	11500	36.65991772717	3
24	11508	36.66038372717	2
24	11700	37.15991772717	3
24	11708	37.16038372717	2
24	12074	38.36087568244	3
24	12082	38.36134168244	2
24	12279	38.86087568244	3
24	12287	38.86134168244	2
24	12860	40.50169501158	3
24	12868	40.50216101158	2
24	13040	41.00169501158	3
24	13048	41.00216101158	2
24	13591	42.540487476415	3
24	13599	42.540953476415	2
24	13772	43.040487476415	3
24	13780	43.040953476415	2
24	14327	44.609957534752	3
24	14335	44.610423534752	2
24	14507	45.109957534752	3
24	14515	45.110423534752	2
24	14980	46.674852184738	3
24	14988	46.675318184738	2
24	15187	47.174852184738	3
24	15195	47.175318184738	2
24	15726	48.80533701542	3
24	15734	48.80580301542	2
24	15941	49.30533701542	3
24	15950	49.30580301542	2
24	16435	50.825593763632	3
24	16444	50.826059763632	2
24	16670	51.325593763632	3
24	16679	51.326059763632	2
24	17279	52.912490521998	3
24	17287	52.912956521998	2
24	17443	53.412490521998	3
24	17451	53.412956521998	2
24	18066	54.944186493028	3
24	18074	54.944652493028	2
24	18224	55.444186493028	3
24	18232	55.444652493028	2
24	18896	57.076581248455	3
24	18904	57.077047248455	2
24	19048	57.576581248455	3
24	19056	57.577047248455	2
24	19764	59.227531482323	3
24	19772	59.227997482323	2
24	19912	59.727531482323	3
24	19920	59.727997482323	2
24	20552	61.330397117126	3
24	20560	61.330863117126	2
24	20730	61.830397117126	3
24	20738	61.830863117126	2
24	21325	63.416261367139	3
24	21333	63.416727367139	2
25	0	0	1
25	503	3.947009828233	0
25	511	3.947475828233	1
25	643	4.447009828233	0
25	651	4.447475828233	1
25	700	4.634698193637	3
25	707	4.635164193637	1
25	882	5.134698227229	3
25	889	5.135164227229	1
25	1140	5.921516748809	0
25	1148	5.921982748809	1
25	1406	6.421516748809	0
25	1414	6.421982748809	1
25	1471	6.672349053304	3
25	1478	6.672815053304	1
25	1657	7.172349072358	3
25	1664	7.172815072358	1
25	1850	7.867414385998	0
25	1858	7.867880385998	1
25	2029	8.367414385998	0
25	2037	8.367880385998	1
25	2186	8.6953753362	3
25	2193	8.6958413362	1
25	2372	9.195375382871	3
25	2379	9.195841382871	1
25	2593	10.063784544095	0
25	2602	10.064250544095	1
25	2850	10.563784544095	0
25	2859	10.564250544095	1
25	2887	10.610619094366	3
25	2895	10.611085094366	1
25	3070	11.110619141987	3
25	3078	11.111085141987	1
25	3407	12.189971289849	0
25	3415	12.190437289849	1
25	3519	12.483926377047	3
25	3526	12.484392377047	1
25	3618	12.689971289849	0
25	3626	12.690437289849	1
25	3730	12.983926375922	3
25	3737	12.984392375922	1
25	4082	14.199632994036	0
25	4090	14.200098994036	1
25	4250	14.668742733938	3
25	4262	14.669208733938	1
25	4287	14.699632994036	0
25	4295	14.700098994036	1
25	4466	15.168742765183	3
25	4478	15.169208765183	1
25	4786	16.219121766372	0
25	4794	16.219587766372	1
25	4981	16.719121766372	0
25	4989	16.719587766372	1
25	5511	18.404358732587	0
25	5519	18.404824732587	1
25	5707	18.904358732587	0
25	5715	18.904824732587	1
25	6167	20.410235530372	0
25	6175	20.410701530372	1
25	6357	20.910235530372	0
25	6365	20.910701530372	1
25	6906	22.602053216319	0
25	6914	22.602519216319	1
25	7101	23.102053216319	0
25	7109	23.102519216319	1
25	7548	24.582711429364	0
25	7556	24.583177429364	1
25	7775	25.082711429364	0
25	7783	25.083177429364	1
25	7892	25.508526917831	3
25	7904	25.508992917831	1
25	8194	26.520015858379	0
25	8202	26.520481858379	1
25	8394	27.020015858379	0
25	8402	27.020481858379	1
25	8438	27.114990454868	3
25	8445	27.115456454868	1
25	8571	27.614990398522	3
25	8578	27.615456398522	1
25	8856	28.567004329875	0
25	8864	28.567470329875	1
25	9053	29.067004329875	0
25	9061	29.067470329875	1
25	9102	29.215363154979	3
25	9110	29.215829154979	1
25	9231	29.715363116152	3
25	9238	29.715829116152	1
25	9521	30.719009472323	0
25	9529	30.719475472323	1
25	9705	31.106914271389	3
25	9712	31.107380271389	1
25	9747	31.219009472323	0
25	9755	31.219475472323	1
25	9864	31.606914237995	3
25	9871	31.607380237995	1
25	10147	32.545999312436	0
25	10155	32.546465312436	1
25	10294	32.978703511728	3
25	10301	32.979169511728	1
25	10338	33.045999312436	0
25	10346	33.046465312436	1
25	10460	33.478703482404	3
25	10467	33.479169482404	1
25	10819	34.627489878918	0
25	10827	34.627955878918	1
25	10950	34.880659861522	3
25	10957	34.881125861522	1
25	11014	35.127489878918	0
25	11022	35.127955878918	1
25	11114	35.380659882434	3
25	11121	35.381125882434	1
25	11500	36.65991772717	0
25	11508	36.66038372717	1
25	11589	36.812408339463	3
25	11596	36.812874339463	1
25	11700	37.15991772717	0
25	11708	37.16038372717	1
25	11754	37.312408387869	3
25	11761	37.312874387869	1
25	12074	38.36087568244	0
25	12082	38.36134168244	1
25	12279	38.86087568244	0
25	12287	38.86134168244	1
25	12320	38.935142023109	3
25	12327	38.935608023109	1
25	12453	39.435142073365	3
25	12460	39.435608073365	1
25	12775	40.423535408068	3
25	12792	40.424001408068	1
25	12860	40.50169501158	0
25	12868	40.50216101158	1
25	13040	41.00169501158	0
25	13048	41.00216101158	1
25	13086	41.079485152953	3
25	13093	41.079951152953	1
25	13225	41.579485172599	3
25	13232	41.579951172599	1
25	13304	41.914871469526	3
25	13321	41.915337469526	1
25	13497	42.414871416933	3
25	13509	42.415337416933	1
25	13591	42.540487476415	0
25	13599	42.540953476415	1
25	13772	43.040487476415	0
25	13780	43.040953476415	1
25	13818	43.103913588403	3
25	13830	43.104379588403	1
25	13955	43.603913633351	3
25	13967	43.604379633351	1
25	14091	44.037488648717	3
25	14098	44.037954648717	1
25	14275	44.537488650214	3
25	14282	44.537954650214	1
25	14327	44.609957534752	0
25	14335	44.610423534752	1
25	14507	45.109957534752	0
25	14515	45.110423534752	1
25	14815	46.176336699781	3
25	14828	46.176802699781	1
25	14980	46.674852184738	0
25	14988	46.675318184738	1
25	15013	46.676336733776	3
25	15026	46.676802733776	1
25	15187	47.174852184738	0
25	15195	47.175318184738	1
25	15233	47.228241008242	3
25	15245	47.228707008242	1
25	15330	47.725868150058	3
25	15347	47.726334150058	1
25	15370	47.728240973395	3
25	15382	47.728706973395	1
25	15509	48.225868126051	3
25	15526	48.226334126051	1
25	15564	48.350862970843	3
25	15576	48.351328970843	1
25	15726	48.80533701542	0
25	15734	48.80580301542	1
25	15775	48.850862999619	3
25	15787	48.851328999619	1
25	15862	48.983001835311	3
25	15874	48.983467835311	1
25	15941	49.30533701542	0
25	15950	49.30580301542	1
25	16007	49.483001781672	3
25	16019	49.483467781672	1
25	16095	49.921007735304	3
25	16107	49.921473735304	1
25	16240	50.407397193062	3
25	16257	50.407863193062	1
25	16279	50.421007658218	3
25	16286	50.421473658218	1
25	16324	50.461400355058	3
25	16336	50.461866355058	1
25	16435	50.825593763632	0
25	16444	50.826059763632	1
25	16497	50.907397105692	3
25	16514	50.907863105692	1
25	16545	50.96140037127	3
25	16557	50.96186637127	1
25	16607	51.101924498942	3
25	16619	51.102390498942	1
25	16670	51.325593763632	0
25	16679	51.326059763632	1
25	16755	51.60192447788	3
25	16767	51.60239047788	1
25	16832	51.923566103479	3
25	16839	51.924032103479	1
25	16956	52.3262716585	3
25	16968	52.3267376585	1
25	17017	52.4063776273	3
25	17029	52.4068436273	1
25	17057	52.423566065581	3
25	17064	52.424032065581	1
25	17130	52.695152533397	3
25	17142	52.695618533397	1
25	17180	52.826271612559	3
25	17192	52.826737612559	1
25	17242	52.906377634691	3
25	17254	52.906843634691	1
25	17279	52.912490521998	0
25	17287	52.912956521998	1
25	17369	53.168073536007	3
25	17381	53.168539536007	1
25	17443	53.412490521998	0
25	17451	53.412956521998	1
25	17526	53.668073546279	3
25	17538	53.668539546279	1
25	17613	53.985123873642	3
25	17620	53.985589873642	1
25	17687	54.210648919436	3
25	17699	54.211114919436	1
25	17726	54.25361054232	3
25	17733	54.25407654232	1
25	17789	54.335602403798	3
25	17806	54.336068403798	1
25	17848	54.485123864789	3
25	17855	54.485589864789	1
25	17952	54.753610530799	3
25	17959	54.754076530799	1
25	18015	54.835602398253	3
25	18032	54.836068398253	1
25	18066	54.944186493028	0
25	18074	54.944652493028	1
25	18151	55.184791385838	3
25	18168	55.185257385838	1
25	18224	55.444186493028	0
25	18232	55.444652493028	1
25	18303	55.684791389975	3
25	18320	55.685257389975	1
25	18394	56.026909750368	3
25	18406	56.027375750368	1
25	18470	56.242202789872	3
25	18492	56.242668789872	1
25	18560	56.308950218031	3
25	18567	56.309416218031	1
25	18638	56.526909810454	3
25	18650	56.527375810454	1
25	18715	56.742202783346	3
25	18737	56.742668783346	1
25	18805	56.808950206806	3
25	18812	56.809416206806	1
25	18896	57.076581248455	0
25	18904	57.077047248455	1
25	18963	57.236928060792	3
25	18975	57.237394060792	1
25	19048	57.576581248455	0
25	19056	57.577047248455	1
25	19116	57.736928078487	3
25	19133	57.737394078487	1
25	19187	57.942423039302	3
25	19204	57.942889039302	1
25	19298	58.135617664469	3
25	19326	58.136083664469	1
25	19363	58.268039684064	3
25	19371	58.268505684064	1
25	19437	58.442423091975	3
25	19454	58.442889091975	1
25	19542	58.635617700089	3
25	19570	58.636083700089	1
25	19607	58.768039696417	3
25	19615	58.768505696417	1
25	19717	59.188907090325	3
25	19734	59.189373090325	1
25	19764	59.227531482323	0
25	19772	59.227997482323	1
25	19864	59.68890709183	3
25	19881	59.68937309183	1
25	19912	59.727531482323	0
25	19920	59.727997482323	1
25	19974	59.869958906618	3
25	19991	59.870424906618	1
25	20089	60.122777051066	3
25	20096	60.123243051066	1
25	20323	60.622777041838	3
25	20330	60.623243041838	1
25	20492	61.182349679251	3
25	20509	61.182815679251	1
25	20552	61.330397117126	0
25	20560	61.330863117126	1
25	20636	61.68234967162	3
25	20653	61.68281567162	1
25	20730	61.830397117126	0
25	20738	61.830863117126	1
25	20788	61.98047863687	3
25	20795	61.98094463687	1
25	21024	62.480478610894	3
25	21031	62.480944610894	1
25	21239	63.093036043398	3
25	21256	63.093502043398	1
25	21325	63.416261367139	0
25	21333	63.416727367139	1
26	503	3.947009828233	1
26	504	3.947009828233	2
26	510	3.947475828233	1
26	511	3.947475828233	0
26	643	4.447009828233	1
26	644	4.447009828233	2
26	650	4.447475828233	1
26	651	4.447475828233	0
26	1140	5.921516748809	1
26	1141	5.921516748809	2
26	1147	5.921982748809	1
26	1148	5.921982748809	0
26	1406	6.421516748809	1
26	1407	6.421516748809	2
26	1413	6.421982748809	1
26	1414	6.421982748809	0
26	1850	7.867414385998	1
26	1851	7.867414385998	2
26	1857	7.867880385998	1
26	1858	7.867880385998	0
26	2029	8.367414385998	1
26	2030	8.367414385998	2
26	2036	8.367880385998	1
26	2037	8.367880385998	0
26	2593	10.063784544095	1
26	2594	10.063784544095	2
26	2601	10.064250544095	1
26	2602	10.064250544095	0
26	2850	10.563784544095	1
26	2851	10.563784544095	2
26	2858	10.564250544095	1
26	2859	10.564250544095	0
26	3407	12.189971289849	1
26	3408	12.189971289849	2
26	3414	12.190437289849	1
26	3415	12.190437289849	0
26	3618	12.689971289849	1
26	3619	12.689971289849	2
26	3625	12.690437289849	1
26	3626	12.690437289849	0
26	4082	14.199632994036	1
26	4083	14.199632994036	2
26	4089	14.200098994036	1
26	4090	14.200098994036	0
26	4287	14.699632994036	1
26	4288	14.699632994036	2
26	4294	14.700098994036	1
26	4295	14.700098994036	0
26	4786	16.219121766372	1
26	4787	16.219121766372	2
26	4793	16.219587766372	1
26	4794	16.219587766372	0
26	4981	16.719121766372	1
26	4982	16.719121766372	2
26	4988	16.719587766372	1
26	4989	16.719587766372	0
26	5511	18.404358732587	1
26	5512	18.404358732587	2
26	5518	18.404824732587	1
26	5519	18.404824732587	0
26	5707	18.904358732587	1
26	5708	18.904358732587	2
26	5714	18.904824732587	1
26	5715	18.904824732587	0
26	6167	20.410235530372	1
26	6168	20.410235530372	2
26	6174	20.410701530372	1
26	6175	20.410701530372	0
26	6357	20.910235530372	1
26	6358	20.910235530372	2
26	6364	20.910701530372	1
26	6365	20.910701530372	0
26	6906	22.602053216319	1
26	6907	22.602053216319	2
26	6913	22.602519216319	1
26	6914	22.602519216319	0
26	7101	23.102053216319	1
26	7102	23.102053216319	2
26	7108	23.102519216319	1
26	7109	23.102519216319	0
26	7548	24.582711429364	1
26	7549	24.582711429364	2
26	7555	24.583177429364	1
26	7556	24.583177429364	0
26	7775	25.082711429364	1
26	7776	25.082711429364	2
26	7782	25.083177429364	1
26	7783	25.083177429364	0
26	8194	26.520015858379	1
26	8195	26.520015858379	2
26	8201	26.520481858379	1
26	8202	26.520481858379	0
26	8394	27.020015858379	1
26	8395	27.020015858379	2
26	8401	27.020481858379	1
26	8402	27.020481858379	0
26	8856	28.567004329875	1
26	8857	28.567004329875	2
26	8863	28.567470329875	1
26	8864	28.567470329875	0
26	9053	29.067004329875	1
26	9054	29.067004329875	2
26	9060	29.067470329875	1
26	9061	29.067470329875	0
26	9521	30.719009472323	1
26	9522	30.719009472323	2
26	9528	30.719475472323	1
26	9529	30.719475472323	0
26	9747	31.219009472323	1
26	9748	31.219009472323	2
26	9754	31.219475472323	1
26	9755	31.219475472323	0
26	10147	32.545999312436	1
26	10148	32.545999312436	2
26	10154	32.546465312436	1
26	10155	32.546465312436	0
26	10338	33.045999312436	1
26	10339	33.045999312436	2
26	10345	33.046465312436	1
26	10346	33.046465312436	0
26	10819	34.627489878918	1
26	10820	34.627489878918	2
26	10826	34.627955878918	1
26	10827	34.627955878918	0
26	11014	35.127489878918	1
26	11015	35.127489878918	2
26	11021	35.127955878918	1
26	11022	35.127955878918	0
26	11500	36.65991772717	1
26	11501	36.65991772717	2
26	11507	36.66038372717	1
26	11508	36.66038372717	0
26	11700	37.15991772717	1
26	11701	37.15991772717	2
26	11707	37.16038372717	1
26	11708	37.16038372717	0
26	12074	38.36087568244	1
26	12075	38.36087568244	2
26	12081	38.36134168244	1
26	12082	38.36134168244	0
26	12279	38.86087568244	1
26	12280	38.86087568244	2
26	12286	38.86134168244	1
26	12287	38.86134168244	0
26	12860	40.50169501158	1
26	12861	40.50169501158	2
26	12867	40.50216101158	1
26	12868	40.50216101158	0
26	13040	41.00169501158	1
26	13041	41.00169501158	2
26	13047	41.00216101158	1
26	13048	41.00216101158	0
26	13591	42.540487476415	1
26	13592	42.540487476415	2
26	13598	42.540953476415	1
26	13599	42.540953476415	0
26	13772	43.040487476415	1
26	13773	43.040487476415	2
26	13779	43.040953476415	1
26	13780	43.040953476415	0
26	14327	44.609957534752	1
26	14328	44.609957534752	2
26	14334	44.610423534752	1
26	14335	44.610423534752	0
26	14507	45.109957534752	1
26	14508	45.109957534752	2
26	14514	45.110423534752	1
26	14515	45.110423534752	0
26	14980	46.674852184738	1
26	14981	46.674852184738	2
26	14987	46.675318184738	1
26	14988	46.675318184738	0
26	15187	47.174852184738	1
26	15188	47.174852184738	2
26	15194	47.175318184738	1
26	15195	47.175318184738	0
26	15726	48.80533701542	1
26	15727	48.80533701542	2
26	15733	48.80580301542	1
26	15734	48.80580301542	0
26	15941	49.30533701542	1
26	15942	49.30533701542	2
26	15949	49.30580301542	1
26	15950	49.30580301542	0
26	16435	50.825593763632	1
26	16436	50.825593763632	2
26	16443	50.826059763632	1
26	16444	50.826059763632	0
26	16670	51.325593763632	1
26	16671	51.325593763632	2
26	16678	51.326059763632	1
26	16679	51.326059763632	0
26	17279	52.912490521998	1
26	17280	52.912490521998	2
26	17286	52.912956521998	1
26	17287	52.912956521998	0
26	17443	53.412490521998	1
26	17444	53.412490521998	2
26	17450	53.412956521998	1
26	17451	53.412956521998	0
26	18066	54.944186493028	1
26	18067	54.944186493028	2
26	18073	54.944652493028	1
26	18074	54.944652493028	0
26	18224	55.444186493028	1
26	18225	55.444186493028	2
26	18231	55.444652493028	1
26	18232	55.444652493028	0
26	18896	57.076581248455	1
26	18897	57.076581248455	2
26	18903	57.077047248455	1
26	18904	57.077047248455	0
26	19048	57.576581248455	1
26	19049	57.576581248455	2
26	19055	57.577047248455	1
26	19056	57.577047248455	0
26	19764	59.227531482323	1
26	19765	59.227531482323	2
26	19771	59.227997482323	1
26	19772	59.227997482323	0
26	19912	59.727531482323	1
26	19913	59.727531482323	2
26	19919	59.727997482323	1
26	19920	59.727997482323	0
26	20552	61.330397117126	1
26	20553	61.330397117126	2
26	20559	61.330863117126	1
26	20560	61.330863117126	0
26	20730	61.830397117126	1
26	20731	61.830397117126	2
26	20737	61.830863117126	1
26	20738	61.830863117126	0
26	21325	63.416261367139	1
26	21326	63.416261367139	2
26	21332	63.416727367139	1
26	21333	63.416727367139	0
27	0	0	0
28	0	0	0
28	0	0	0
28	0	0	0
28	0	0	0
28	498	3.947009828233	0
28	498	3.947009828233	2
28	500	3.947009828233	2
28	500	3.947009828233	3
28	503	3.947009828233	3
28	503	3.947009828233	3
28	510	3.947475828233	3
28	510	3.947475828233	0
28	511	3.947475828233	0
28	511	3.947475828233	0
28	638	4.447009828233	0
28	638	4.447009828233	2
28	640	4.447009828233	2
28	640	4.447009828233	3
28	643	4.447009828233	3
28	643	4.447009828233	3
28	650	4.447475828233	3
28	650	4.447475828233	0
28	651	4.447475828233	0
28	651	4.447475828233	0
28	700	4.634698193637	0
28	700	4.634698193637	0
28	707	4.635164193637	0
28	707	4.635164193637	0
28	882	5.134698227229	0
28	882	5.134698227229	0
28	889	5.135164227229	0
28	889	5.135164227229	0
28	1135	5.921516748809	0
28	1135	5.921516748809	2
28	1137	5.921516748809	2
28	1137	5.921516748809	3
28	1140	5.921516748809	3
28	1140	5.921516748809	3
28	1147	5.921982748809	3
28	1147	5.921982748809	0
28	1148	5.921982748809	0
28	1148	5.921982748809	0
28	1401	6.421516748809	0
28	1401	6.421516748809	2
28	1403	6.421516748809	2
28	1403	6.421516748809	3
28	1406	6.421516748809	3
28	1406	6.421516748809	3
28	1413	6.421982748809	3
28	1413	6.421982748809	0
28	1414	6.421982748809	0
28	1414	6.421982748809	0
28	1471	6.672349053304	0
28	1471	6.672349053304	0
28	1478	6.672815053304	0
28	1478	6.672815053304	0
28	1657	7.172349072358	0
28	1657	7.172349072358	0
28	1664	7.172815072358	0
28	1664	7.172815072358	0
28	1845	7.867414385998	0
28	1845	7.867414385998	2
28	1847	7.867414385998	2
28	1847	7.867414385998	3
28	1850	7.867414385998	3
28	1850	7.867414385998	3
28	1857	7.867880385998	3
28	1857	7.867880385998	0
28	1858	7.867880385998	0
28	1858	7.867880385998	0
28	2024	8.367414385998	0
28	2024	8.367414385998	2
28	2026	8.367414385998	2
28	2026	8.367414385998	3
28	2029	8.367414385998	3
28	2029	8.367414385998	3
28	2036	8.367880385998	3
28	2036	8.367880385998	0
28	2037	8.367880385998	0
28	2037	8.367880385998	0
28	2186	8.6953753362	0
28	2186	8.6953753362	0
28	2193	8.6958413362	0
28	2193	8.6958413362	0
28	2372	9.195375382871	0
28	2372	9.195375382871	0
28	2379	9.195841382871	0
28	2379	9.195841382871	0
28	2588	10.063784544095	0
28	2588	10.063784544095	2
28	2590	10.063784544095	2
28	2590	10.063784544095	3
28	2593	10.063784544095	3
28	2593	10.063784544095	3
28	2601	10.064250544095	3
28	2601	10.064250544095	0
28	2602	10.064250544095	0
28	2602	10.064250544095	0
28	2845	10.563784544095	0
28	2845	10.563784544095	2
28	2847	10.563784544095	2
28	2847	10.563784544095	3
28	2850	10.563784544095	3
28	2850	10.563784544095	3
28	2858	10.564250544095	3
28	2858	10.564250544095	0
28	2859	10.564250544095	0
28	2859	10.564250544095	0
28	2887	10.610619094366	0
28	2887	10.610619094366	0
28	2895	10.611085094366	0
28	2895	10.611085094366	0
28	3070	11.110619141987	0
28	3070	11.110619141987	0
28	3078	11.111085141987	0
28	3078	11.111085141987	0
28	3402	12.189971289849	0
28	3402	12.189971289849	2
28	3404	12.189971289849	2
28	3404	12.189971289849	3
28	3407	12.189971289849	3
28	3407	12.189971289849	3
28	3414	12.190437289849	3
28	3414	12.190437289849	0
28	3415	12.190437289849	0
28	3415	12.190437289849	0
28	3519	12.483926377047	0
28	3519	12.483926377047	0
28	3526	12.484392377047	0
28	3526	12.484392377047	0
28	3613	12.689971289849	0
28	3613	12.689971289849	2
28	3615	12.689971289849	2
28	3615	12.689971289849	3
28	3618	12.689971289849	3
28	3618	12.689971289849	3
28	3625	12.690437289849	3
28	3625	12.690437289849	0
28	3626	12.690437289849	0
28	3626	12.690437289849	0
28	3730	12.983926375922	0
28	3730	12.983926375922	0
28	3737	12.984392375922	0
28	3737	12.984392375922	0
28	4077	14.199632994036	0
28	4077	14.199632994036	2
28	4079	14.199632994036	2
28	4079	14.199632994036	3
28	4082	14.199632994036	3
28	4082	14.199632994036	3
28	4089	14.200098994036	3
28	4089	14.200098994036	0
28	4090	14.200098994036	0
28	4090	14.200098994036	0
28	4250	14.668742733938	0
28	4250	14.668742733938	0
28	4262	14.669208733938	0
28	4262	14.669208733938	0
28	4282	14.699632994036	0
28	4282	14.699632994036	2
28	4284	14.699632994036	2
28	4284	14.699632994036	3
28	4287	14.699632994036	3
28	4287	14.699632994036	3
28	4294	14.700098994036	3
28	4294	14.700098994036	0
28	4295	14.700098994036	0
28	4295	14.700098994036	0
28	4466	15.168742765183	0
28	4466	15.168742765183	0
28	4478	15.169208765183	0
28	4478	15.169208765183	0
28	4781	16.219121766372	0
28	4781	16.219121766372	2
28	4783	16.219121766372	2
28	4783	16.219121766372	3
28	4786	16.219121766372	3
28	4786	16.219121766372	3
28	4793	16.219587766372	3
28	4793	16.219587766372	0
28	4794	16.219587766372	0
28	4794	16.219587766372	0
28	4976	16.719121766372	0
28	4976	16.719121766372	2
28	4978	16.719121766372	2
28	4978	16.719121766372	3
28	4981	16.719121766372	3
28	4981	16.719121766372	3
28	4988	16.719587766372	3
28	4988	16.719587766372	0
28	4989	16.719587766372	0
28	4989	16.719587766372	0
28	5506	18.404358732587	0
28	5506	18.404358732587	2
28	5508	18.404358732587	2
28	5508	18.404358732587	3
28	5511	18.404358732587	3
28	5511	18.404358732587	3
28	5518	18.404824732587	3
28	5518	18.404824732587	0
28	5519	18.404824732587	0
28	5519	18.404824732587	0
28	5702	18.904358732587	0
28	5702	18.904358732587	2
28	5704	18.904358732587	2
28	5704	18.904358732587	3
28	5707	18.904358732587	3
28	5707	18.904358732587	3
28	5714	18.904824732587	3
28	5714	18.904824732587	0
28	5715	18.904824732587	0
28	5715	18.904824732587	0
28	6162	20.410235530372	0
28	6162	20.410235530372	2
28	6164	20.410235530372	2
28	6164	20.410235530372	3
28	6167	20.410235530372	3
28	6167	20.410235530372	3
28	6174	20.410701530372	3
28	6174	20.410701530372	0
28	6175	20.410701530372	0
28	6175	20.410701530372	0
28	6352	20.910235530372	0
28	6352	20.910235530372	2
28	6354	20.910235530372	2
28	6354	20.910235530372	3
28	6357	20.910235530372	3
[...]
173	9934	31.890089552554	3
173	9934	31.890089552554	0
173	9935	31.890089552554	0
173	9935	31.890089552554	0
173	10057	32.383565098541	0
173	10057	32.383565098541	0
173	10064	32.384031098541	0
173	10064	32.384031098541	0
173	10085	32.389623552554	0
173	10085	32.389623552554	2
173	10087	32.389623552554	2
173	10087	32.389623552554	3
173	10090	32.389623552554	3
173	10090	32.389623552554	3
173	10097	32.390089552554	3
173	10097	32.390089552554	0
173	10098	32.390089552554	0
173	10098	32.390089552554	0
173	10246	32.883565109261	0
173	10246	32.883565109261	0
173	10253	32.884031109261	0
173	10253	32.884031109261	0
173	10402	33.299355402492	0
173	10402	33.299355402492	0
173	10409	33.299821402492	0
173	10409	33.299821402492	0
173	10529	33.799355420296	0
173	10529	33.799355420296	0
173	10536	33.799821420296	0
173	10536	33.799821420296	0
173	10589	34.022091051214	0
173	10589	34.022091051214	2
173	10591	34.022091051214	2
173	10591	34.022091051214	3
173	10594	34.022091051214	3
173	10594	34.022091051214	3
173	10601	34.022557051214	3
173	10601	34.022557051214	0
173	10602	34.022557051214	0
173	10602	34.022557051214	0
173	10675	34.327003949888	0
173	10675	34.327003949888	0
173	10682	34.327469949888	0
173	10682	34.327469949888	0
173	10713	34.358310645101	0
173	10713	34.358310645101	0
173	10725	34.358776645101	0
173	10725	34.358776645101	0
173	10760	34.522091051214	0
173	10760	34.522091051214	2
173	10762	34.522091051214	2
173	10762	34.522091051214	3
173	10765	34.522091051214	3
173	10765	34.522091051214	3
173	10772	34.522557051214	3
173	10772	34.522557051214	0
173	10773	34.522557051214	0
173	10773	34.522557051214	0
173	10876	34.827003874281	0
173	10876	34.827003874281	0
173	10883	34.827469874281	0
173	10883	34.827469874281	0
173	10912	34.858310688032	0
173	10912	34.858310688032	0
173	10924	34.858776688032	0
173	10924	34.858776688032	0
173	11070	35.316606069853	0
173	11070	35.316606069853	0
173	11077	35.317072069853	0
173	11077	35.317072069853	0
173	11189	35.804317199632	0
173	11189	35.804317199632	2
173	11191	35.804317199632	2
173	11191	35.804317199632	3
173	11194	35.804317199632	3
173	11194	35.804317199632	3
173	11201	35.804783199632	3
173	11201	35.804783199632	0
173	11202	35.804783199632	0
173	11202	35.804783199632	0
173	11238	35.816606078113	0
173	11238	35.816606078113	0
173	11245	35.817072078113	0
173	11245	35.817072078113	0
173	11336	36.217503060502	0
173	11336	36.217503060502	0
173	11343	36.217969060502	0
173	11343	36.217969060502	0
173	11375	36.304317199632	0
173	11375	36.304317199632	2
173	11377	36.304317199632	2
173	11377	36.304317199632	3
173	11380	36.304317199632	3
173	11380	36.304317199632	3
173	11387	36.304783199632	3
173	11387	36.304783199632	0
173	11388	36.304783199632	0
173	11388	36.304783199632	0
173	11427	36.327947642013	0
173	11427	36.327947642013	0
173	11439	36.328413642013	0
173	11439	36.328413642013	0
173	11541	36.717503013203	0
173	11541	36.717503013203	0
173	11548	36.717969013203	0
173	11548	36.717969013203	0
173	11622	36.827947681554	0
173	11622	36.827947681554	0
173	11634	36.828413681554	0
173	11634	36.828413681554	0
173	11793	37.375960221213	0
173	11793	37.375960221213	0
173	11800	37.376426221213	0
173	11800	37.376426221213	0
173	11895	37.875960199986	0
173	11895	37.875960199986	0
173	11902	37.876426199986	0
173	11902	37.876426199986	0
173	11941	37.983430354704	0
173	11941	37.983430354704	2
173	11943	37.983430354704	2
173	11943	37.983430354704	3
173	11946	37.983430354704	3
173	11946	37.983430354704	3
173	11953	37.983896354704	3
173	11953	37.983896354704	0
173	11954	37.983896354704	0
173	11954	37.983896354704	0
173	12011	38.10817332896	0
173	12011	38.10817332896	0
173	12018	38.10863932896	0
173	12018	38.10863932896	0
173	12117	38.436819188392	0
173	12117	38.436819188392	0
173	12129	38.437285188392	0
173	12129	38.437285188392	0
173	12151	38.483430354704	0
173	12151	38.483430354704	2
173	12153	38.483430354704	2
173	12153	38.483430354704	3
173	12156	38.483430354704	3
173	12156	38.483430354704	3
173	12163	38.483896354704	3
173	12163	38.483896354704	0
173	12164	38.483896354704	0
173	12164	38.483896354704	0
173	12215	38.608173284163	0
173	12215	38.608173284163	0
173	12222	38.608639284163	0
173	12222	38.608639284163	0
173	12352	38.936819198975	0
173	12352	38.936819198975	0
173	12364	38.937285198975	0
173	12364	38.937285198975	0
173	12494	39.499967966746	0
173	12494	39.499967966746	0
173	12501	39.500433966746	0
173	12501	39.500433966746	0
173	12577	39.923534639029	0
173	12577	39.923534639029	2
173	12579	39.923534639029	2
173	12579	39.923534639029	3
173	12582	39.923534639029	3
173	12582	39.923534639029	3
173	12589	39.924000639029	3
173	12589	39.924000639029	0
173	12590	39.924000639029	0
173	12590	39.924000639029	0
173	12638	39.999968030366	0
173	12638	39.999968030366	0
173	12656	40.000434030366	0
173	12656	40.000434030366	0
173	12702	40.15137125729	0
173	12702	40.15137125729	0
173	12709	40.15183725729	0
173	12709	40.15183725729	0
173	12766	40.423534639029	0
173	12766	40.423534639029	2
173	12768	40.423534639029	2
173	12768	40.423534639029	3
173	12771	40.423534639029	3
173	12771	40.423534639029	3
173	12778	40.424000639029	3
173	12778	40.424000639029	0
173	12779	40.424000639029	0
173	12779	40.424000639029	0
173	12863	40.501695766836	0
173	12863	40.501695766836	0
173	12875	40.502161766836	0
173	12875	40.502161766836	0
173	12916	40.651371340617	0
173	12916	40.651371340617	0
173	12923	40.651837340617	0
173	12923	40.651837340617	0
173	13043	41.001695678894	0
173	13043	41.001695678894	0
173	13055	41.002161678894	0
173	13055	41.002161678894	0
173	13087	41.07948535194	0
173	13087	41.07948535194	0
173	13099	41.07995135194	0
173	13099	41.07995135194	0
173	13178	41.516760242461	0
173	13178	41.516760242461	0
173	13190	41.517226242461	0
173	13190	41.517226242461	0
173	13226	41.579485299552	0
173	13226	41.579485299552	0
173	13238	41.579951299552	0
173	13238	41.579951299552	0
173	13295	41.914870909682	0
173	13295	41.914870909682	2
173	13297	41.914870909682	2
173	13297	41.914870909682	3
173	13300	41.914870909682	3
173	13300	41.914870909682	3
173	13307	41.915336909682	3
173	13307	41.915336909682	0
173	13308	41.915336909682	0
173	13308	41.915336909682	0
173	13367	42.016760277906	0
173	13367	42.016760277906	0
173	13379	42.017226277906	0
173	13379	42.017226277906	0
173	13428	42.171196329451	0
173	13428	42.171196329451	0
173	13440	42.171662329451	0
173	13440	42.171662329451	0
173	13489	42.414870909682	0
173	13489	42.414870909682	2
173	13491	42.414870909682	2
173	13491	42.414870909682	3
173	13494	42.414870909682	3
173	13494	42.414870909682	3
173	13501	42.415336909682	3
173	13501	42.415336909682	0
173	13502	42.415336909682	0
173	13502	42.415336909682	0
173	13593	42.540487970788	0
173	13593	42.540487970788	0
173	13600	42.540953970788	0
173	13600	42.540953970788	0
173	13648	42.671196396928	0
173	13648	42.671196396928	0
173	13660	42.671662396928	0
173	13660	42.671662396928	0
173	13774	43.040487923702	0
173	13774	43.040487923702	0
173	13781	43.040953923702	0
173	13781	43.040953923702	0
173	13817	43.103913560179	0
173	13817	43.103913560179	0
173	13824	43.104379560179	0
173	13824	43.104379560179	0
173	13898	43.461833848635	0
173	13898	43.461833848635	0
173	13915	43.462299848635	0
173	13915	43.462299848635	0
173	13954	43.603913526636	0
173	13954	43.603913526636	0
173	13961	43.604379526636	0
173	13961	43.604379526636	0
173	14035	43.961833881284	0
173	14035	43.961833881284	0
173	14052	43.962299881284	0
173	14052	43.962299881284	0
173	14084	44.037488235884	0
173	14084	44.037488235884	2
173	14086	44.037488235884	2
173	14086	44.037488235884	3
173	14089	44.037488235884	3
173	14089	44.037488235884	3
173	14096	44.037954235884	3
173	14096	44.037954235884	0
173	14097	44.037954235884	0
173	14097	44.037954235884	0
173	14160	44.225551132848	0
173	14160	44.225551132848	0
173	14178	44.226017132848	0
173	14178	44.226017132848	0
173	14268	44.537488235884	0
173	14268	44.537488235884	2
173	14270	44.537488235884	2
173	14270	44.537488235884	3
173	14273	44.537488235884	3
173	14273	44.537488235884	3
173	14280	44.537954235884	3
173	14280	44.537954235884	0
173	14281	44.537954235884	0
173	14281	44.537954235884	0
173	14329	44.60995795056	0
173	14329	44.60995795056	0
173	14336	44.61042395056	0
173	14336	44.61042395056	0
173	14380	44.725551209075	0
173	14380	44.725551209075	0
173	14398	44.726017209075	0
173	14398	44.726017209075	0
173	14509	45.109957940528	0
173	14509	45.109957940528	0
173	14516	45.110423940528	0
173	14516	45.110423940528	0
173	14550	45.185824669931	0
173	14550	45.185824669931	0
173	14557	45.186290669931	0
173	14557	45.186290669931	0
173	14634	45.61078225458	0
173	14634	45.61078225458	0
173	14651	45.61124825458	0
173	14651	45.61124825458	0
173	14683	45.6858246299	0
173	14683	45.6858246299	0
173	14690	45.6862906299	0
173	14690	45.6862906299	0
173	14807	46.176336275565	0
173	14807	46.176336275565	2
173	14809	46.176336275565	2
173	14809	46.176336275565	3
173	14812	46.176336275565	3
173	14812	46.176336275565	3
173	14820	46.176802275565	3
173	14820	46.176802275565	0
173	14821	46.176802275565	0
173	14821	46.176802275565	0
173	14982	46.674852642816	0
173	14982	46.674852642816	0
173	14989	46.675318642816	0
173	14989	46.675318642816	0
173	15005	46.676336275565	0
173	15005	46.676336275565	2
173	15007	46.676336275565	2
173	15007	46.676336275565	3
173	15010	46.676336275565	3
173	15010	46.676336275565	3
173	15018	46.676802275565	3
173	15018	46.676802275565	0
173	15019	46.676802275565	0
173	15019	46.676802275565	0
173	15189	47.174852687255	0
173	15189	47.174852687255	0
173	15196	47.175318687255	0
173	15196	47.175318687255	0
173	15232	47.228240515706	0
173	15232	47.228240515706	0
173	15239	47.228706515706	0
173	15239	47.228706515706	0
173	15369	47.728240469468	0
173	15369	47.728240469468	0
173	15376	47.728706469468	0
173	15376	47.728706469468	0
173	15556	48.350862389515	0
173	15556	48.350862389515	2
173	15558	48.350862389515	2
173	15558	48.350862389515	3
173	15561	48.350862389515	3
173	15561	48.350862389515	3
173	15568	48.351328389515	3
173	15568	48.351328389515	0
173	15569	48.351328389515	0
173	15569	48.351328389515	0
173	15728	48.805337622651	0
173	15728	48.805337622651	0
173	15735	48.805803622651	0
173	15735	48.805803622651	0
173	15767	48.850862389515	0
173	15767	48.850862389515	2
173	15769	48.850862389515	2
173	15769	48.850862389515	3
173	15772	48.850862389515	3
173	15772	48.850862389515	3
173	15779	48.851328389515	3
173	15779	48.851328389515	0
173	15780	48.851328389515	0
173	15780	48.851328389515	0
173	15861	48.983001411093	0
173	15861	48.983001411093	0
173	15868	48.983467411093	0
173	15868	48.983467411093	0
173	15944	49.30533765804	0
173	15944	49.30533765804	0
173	15957	49.30580365804	0
173	15957	49.30580365804	0
173	16006	49.483001410646	0
173	16006	49.483001410646	0
173	16013	49.483467410646	0
173	16013	49.483467410646	0
173	16316	50.461399679463	0
173	16316	50.461399679463	2
173	16318	50.461399679463	2
173	16318	50.461399679463	3
173	16321	50.461399679463	3
173	16321	50.461399679463	3
173	16328	50.461865679463	3
173	16328	50.461865679463	0
173	16329	50.461865679463	0
173	16329	50.461865679463	0
173	16439	50.825594450934	0
173	16439	50.825594450934	0
173	16457	50.826060450934	0
173	16457	50.826060450934	0
173	16537	50.961399679463	0
173	16537	50.961399679463	2
173	16539	50.961399679463	2
173	16539	50.961399679463	3
173	16542	50.961399679463	3
173	16542	50.961399679463	3
173	16549	50.961865679463	3
173	16549	50.961865679463	0
173	16550	50.961865679463	0
173	16550	50.961865679463	0
173	16606	51.101924255208	0
173	16606	51.101924255208	0
173	16613	51.102390255208	0
173	16613	51.102390255208	0
173	16675	51.325594467882	0
173	16675	51.325594467882	0
173	16698	51.326060467882	0
173	16698	51.326060467882	0
173	16754	51.601924273623	0
173	16754	51.601924273623	0
173	16761	51.602390273623	0
173	16761	51.602390273623	0
173	16959	52.326271979622	0
173	16959	52.326271979622	0
173	16986	52.326737979622	0
173	16986	52.326737979622	0
173	17009	52.406376919739	0
173	17009	52.406376919739	2
173	17011	52.406376919739	2
173	17011	52.406376919739	3
173	17014	52.406376919739	3
173	17014	52.406376919739	3
173	17021	52.406842919739	3
173	17021	52.406842919739	0
173	17022	52.406842919739	0
173	17022	52.406842919739	0
173	17183	52.826271934378	0
173	17183	52.826271934378	0
173	17210	52.826737934378	0
173	17210	52.826737934378	0
173	17234	52.906376919739	0
173	17234	52.906376919739	2
173	17236	52.906376919739	2
173	17236	52.906376919739	3
173	17239	52.906376919739	3
173	17239	52.906376919739	3
173	17246	52.906842919739	3
173	17246	52.906842919739	0
173	17247	52.906842919739	0
173	17247	52.906842919739	0
173	17284	52.912491237013	0
173	17284	52.912491237013	0
173	17306	52.912957237013	0
173	17306	52.912957237013	0
173	17368	53.168073385133	0
173	17368	53.168073385133	0
173	17375	53.168539385133	0
173	17375	53.168539385133	0
173	17448	53.412491240421	0
173	17448	53.412491240421	0
173	17470	53.412957240421	0
173	17470	53.412957240421	0
173	17525	53.668073413491	0
173	17525	53.668073413491	0
173	17532	53.668539413491	0
173	17532	53.668539413491	0
173	17729	54.253610829964	0
173	17729	54.253610829964	0
173	17751	54.254076829964	0
173	17751	54.254076829964	0
173	17780	54.335601680392	0
173	17780	54.335601680392	2
173	17782	54.335601680392	2
173	17782	54.335601680392	3
173	17785	54.335601680392	3
173	17785	54.335601680392	3
173	17792	54.336067680392	3
173	17792	54.336067680392	0
173	17793	54.336067680392	0
173	17793	54.336067680392	0
173	17955	54.753610792278	0
173	17955	54.753610792278	0
173	17977	54.754076792278	0
173	17977	54.754076792278	0
173	18006	54.835601680392	0
173	18006	54.835601680392	2
173	18008	54.835601680392	2
173	18008	54.835601680392	3
173	18011	54.835601680392	3
173	18011	54.835601680392	3
173	18018	54.836067680392	3
173	18018	54.836067680392	0
173	18019	54.836067680392	0
173	18019	54.836067680392	0
173	18071	54.944187207446	0
173	18071	54.944187207446	0
173	18093	54.944653207446	0
173	18093	54.944653207446	0
173	18149	55.184791330199	0
173	18149	55.184791330199	0
173	18156	55.185257330199	0
173	18156	55.185257330199	0
173	18229	55.444187191596	0
173	18229	55.444187191596	0
173	18251	55.444653191596	0
173	18251	55.444653191596	0
173	18302	55.684791346404	0
173	18302	55.684791346404	0
173	18314	55.685257346404	0
173	18314	55.685257346404	0
173	18396	56.0269100606	0
173	18396	56.0269100606	0
173	18418	56.0273760606	0
173	18418	56.0273760606	0
173	18460	56.242202105735	0
173	18460	56.242202105735	2
173	18462	56.242202105735	2
173	18462	56.242202105735	3
173	18465	56.242202105735	3
173	18465	56.242202105735	3
173	18472	56.242668105735	3
173	18472	56.242668105735	0
173	18473	56.242668105735	0
173	18473	56.242668105735	0
173	18522	56.274887222125	0
173	18522	56.274887222125	0
173	18535	56.275353222125	0
173	18535	56.275353222125	0
173	18561	56.308950354137	0
173	18561	56.308950354137	0
173	18573	56.309416354137	0
173	18573	56.309416354137	0
173	18640	56.526909986077	0
173	18640	56.526909986077	0
173	18662	56.527375986077	0
173	18662	56.527375986077	0
173	18705	56.742202105735	0
173	18705	56.742202105735	2
173	18707	56.742202105735	2
173	18707	56.742202105735	3
173	18710	56.742202105735	3
173	18710	56.742202105735	3
173	18717	56.742668105735	3
173	18717	56.742668105735	0
173	18718	56.742668105735	0
173	18718	56.742668105735	0
173	18767	56.774887181228	0
173	18767	56.774887181228	0
173	18780	56.775353181228	0
173	18780	56.775353181228	0
173	18806	56.80895031036	0
173	18806	56.80895031036	0
173	18818	56.80941631036	0
173	18818	56.80941631036	0
173	18901	57.076581943106	0
173	18901	57.076581943106	0
173	18923	57.077047943106	0
173	18923	57.077047943106	0
173	18965	57.236928089704	0
173	18965	57.236928089704	0
173	18987	57.237394089704	0
173	18987	57.237394089704	0
173	19053	57.576581975287	0
173	19053	57.576581975287	0
173	19075	57.577047975287	0
173	19075	57.577047975287	0
173	19117	57.736928160567	0
173	19117	57.736928160567	0
173	19139	57.737394160567	0
173	19139	57.737394160567	0
173	19188	57.942423048085	0
173	19188	57.942423048085	0
173	19210	57.942889048085	0
173	19210	57.942889048085	0
173	19259	58.133199737588	0
173	19259	58.133199737588	0
173	19266	58.133665737588	0
173	19266	58.133665737588	0
173	19287	58.135616899598	0
173	19287	58.135616899598	2
173	19289	58.135616899598	2
173	19289	58.135616899598	3
173	19292	58.135616899598	3
173	19292	58.135616899598	3
173	19300	58.136082899598	3
173	19300	58.136082899598	0
173	19301	58.136082899598	0
173	19301	58.136082899598	0
173	19364	58.268039771394	0
173	19364	58.268039771394	0
173	19377	58.268505771394	0
173	19377	58.268505771394	0
173	19438	58.442423094104	0
173	19438	58.442423094104	0
173	19460	58.442889094104	0
173	19460	58.442889094104	0
173	19503	58.633199670536	0
173	19503	58.633199670536	0
173	19510	58.633665670536	0
173	19510	58.633665670536	0
173	19531	58.635616899598	0
173	19531	58.635616899598	2
173	19533	58.635616899598	2
173	19533	58.635616899598	3
173	19536	58.635616899598	3
173	19536	58.635616899598	3
173	19544	58.636082899598	3
173	19544	58.636082899598	0
173	19545	58.636082899598	0
173	19545	58.636082899598	0
173	19608	58.768039791988	0
173	19608	58.768039791988	0
173	19621	58.768505791988	0
173	19621	58.768505791988	0
173	19718	59.188907245753	0
173	19718	59.188907245753	0
173	19740	59.189373245753	0
173	19740	59.189373245753	0
173	19865	59.688907244457	0
173	19865	59.688907244457	0
173	19887	59.689373244457	0
173	19887	59.689373244457	0
173	19975	59.869958910635	0
173	19975	59.869958910635	0
173	19997	59.870424910635	0
173	19997	59.870424910635	0
173	20049	60.089207208354	0
173	20049	60.089207208354	0
173	20056	60.089673208354	0
173	20056	60.089673208354	0
173	20091	60.122777196793	0
173	20091	60.122777196793	0
173	20108	60.123243196793	0
173	20108	60.123243196793	0
173	20152	60.268468887653	0
173	20152	60.268468887653	2
173	20154	60.268468887653	2
173	20154	60.268468887653	3
173	20157	60.268468887653	3
173	20157	60.268468887653	3
173	20164	60.268934887653	3
173	20164	60.268934887653	0
173	20165	60.268934887653	0
173	20165	60.268934887653	0
173	20219	60.369958921153	0
173	20219	60.369958921153	0
173	20236	60.370424921153	0
173	20236	60.370424921153	0
173	20283	60.589207131475	0
173	20283	60.589207131475	0
173	20290	60.589673131475	0
173	20290	60.589673131475	0
173	20325	60.62277721671	0
173	20325	60.62277721671	0
173	20342	60.62324321671	0
173	20342	60.62324321671	0
173	20386	60.768468887653	0
173	20386	60.768468887653	2
173	20388	60.768468887653	2
173	20388	60.768468887653	3
173	20391	60.768468887653	3
173	20391	60.768468887653	3
173	20398	60.768934887653	3
173	20398	60.768934887653	0
173	20399	60.768934887653	0
173	20399	60.768934887653	0
173	20493	61.182349814711	0
173	20493	61.182349814711	0
173	20515	61.182815814711	0
173	20515	61.182815814711	0
173	20637	61.682349772768	0
173	20637	61.682349772768	0
173	20659	61.682815772768	0
173	20659	61.682815772768	0
173	20790	61.980478882279	0
173	20790	61.980478882279	0
173	20807	61.980944882279	0
173	20807	61.980944882279	0
173	20853	62.109957039762	0
173	20853	62.109957039762	2
173	20855	62.109957039762	2
173	20855	62.109957039762	3
173	20858	62.109957039762	3
173	20858	62.109957039762	3
173	20865	62.110423039762	3
173	20865	62.110423039762	0
173	20866	62.110423039762	0
173	20866	62.110423039762	0
173	20911	62.189343696835	0
173	20911	62.189343696835	0
173	20918	62.189809696835	0
173	20918	62.189809696835	0
173	21026	62.480478910844	0
173	21026	62.480478910844	0
173	21043	62.480944910844	0
173	21043	62.480944910844	0
173	21082	62.609957039762	0
173	21082	62.609957039762	2
173	21084	62.609957039762	2
173	21084	62.609957039762	3
173	21087	62.609957039762	3
173	21087	62.609957039762	3
173	21094	62.610423039762	3
173	21094	62.610423039762	0
173	21095	62.610423039762	0
173	21095	62.610423039762	0
173	21141	62.689343735157	0
173	21141	62.689343735157	0
173	21148	62.689809735157	0
173	21148	62.689809735157	0
173	21240	63.093036131382	0
173	21240	63.093036131382	0
173	21262	63.093502131382	0
173	21262	63.093502131382	0
173	21329	63.416262172388	0
173	21329	63.416262172388	0
