file 579127 1468584420                                          
version 2
run Ping2-0-20160715-14:05:02-4035
attr configname Ping2
attr datetime 20160715-14:05:02
attr experiment Ping2
attr inifile omnetpp.ini
attr iterationvars ""
attr iterationvars2 $repetition=0
attr measurement ""
attr network Net80211test
attr processid 4035
attr repetition 0
attr replication #0
attr resultdir results
attr runnumber 0
attr seedset 0
param **.constraintAreaMaxX 600m
param **.constraintAreaMaxY 400m
param **.constraintAreaMaxZ 0m
param **.constraintAreaMinX 0m
param **.constraintAreaMinY 0m
param **.constraintAreaMinZ 0m
param **.host*.mobility.changeAngleBy "normal(0deg, 30deg)"
param **.host*.mobility.changeInterval "truncnormal(2s, 0.5s)"
param **.host*.mobility.initFromDisplayString false
param **.host*.mobility.speed "truncnormal(20mps, 8mps)"
param **.host*.mobility.updateInterval 100ms
param **.host*.mobilityType "\"MassMobility\""
param **.host[*].networkLayerType "\"IPv4ExtNetworkLayer\""
param **.host[*].udpType "\"UDPExt\""
param **.ip.forceBroadcast true
param **.udpApp[*].delayLimit 3s
param **.udpApp[*].stopTime 10000s
param **.udpApp[0].burstDuration 1s
param **.udpApp[0].chooseDestAddrMode "\"perBurst\""
param **.udpApp[0].destAddresses "\"255.255.255.255\""
param **.udpApp[0].destPort 100
param **.udpApp[0].localPort 100
param **.udpApp[0].messageLength 1250B
param **.udpApp[0].sendInterval 0.5s
param **.udpApp[0].sleepDuration "truncnormal(1s, 0.1s)"
param **.udpApp[0].startTime "truncnormal(5s, 1s)"
param **.udpApp[1].burstDuration 100s
param **.udpApp[1].chooseDestAddrMode "\"perBurst\""
param **.udpApp[1].destAddresses "moduleListByNedType(\"inet.node.inet.AdhocHost\")"
param **.udpApp[1].destPort 200
param **.udpApp[1].localPort 200
param **.udpApp[1].messageLength 1250B
param **.udpApp[1].sendInterval 0.5s
param **.udpApp[1].sleepDuration "truncnormal(10s, 0.1s)"
param **.udpApp[1].startTime "truncnormal(10s, 1s)"
param **.wlan[*].bitrate 2Mbps
param **.wlan[*].mac.address "\"auto\""
param **.wlan[*].mac.cwMinBroadcast 31
param **.wlan[*].mac.cwMinData 7
param **.wlan[*].mac.maxQueueSize 14
param **.wlan[*].mac.retryLimit 7
param **.wlan[*].mac.rtsThresholdBytes 3000B
param **.wlan[*].macType "\"Ieee80211MacExt\""
param **.wlan[*].mgmt.frameCapacity 10
param **.wlan[*].mgmtType "\"Ieee80211MgmtAdhocExt\""
param **.wlan[*].radio.receiver.sensitivity -85dBm
param **.wlan[*].radio.receiver.snirThreshold 4dB
param **.wlan[*].radio.receiverType "\"Ieee80211ScalarReceiverExt\""
param **.wlan[*].radio.transmitter.power 2mW
param *.host[*].numUdpApps 2
param *.host[*].udpApp[0].typename "\"UDPStatisticsApp\""
param *.host[*].udpApp[1].typename "\"UDPBasicBurstExt\""

vector 28  Net80211test.host[0].wlan[0].mac.ctn[0]  state:vector  ETV
attr interpolationmode  none
attr source  stateChanged
attr title  "contention state, vector"
vector 57  Net80211test.host[1].wlan[0].mac.ctn[0]  state:vector  ETV
attr interpolationmode  none
attr source  stateChanged
attr title  "contention state, vector"
vector 86  Net80211test.host[2].wlan[0].mac.ctn[0]  state:vector  ETV
attr interpolationmode  none
attr source  stateChanged
attr title  "contention state, vector"
vector 115  Net80211test.host[3].wlan[0].mac.ctn[0]  state:vector  ETV
attr interpolationmode  none
attr source  stateChanged
attr title  "contention state, vector"
vector 144  Net80211test.host[4].wlan[0].mac.ctn[0]  state:vector  ETV
attr interpolationmode  none
attr source  stateChanged
attr title  "contention state, vector"
vector 173  Net80211test.host[5].wlan[0].mac.ctn[0]  state:vector  ETV
attr interpolationmode  none
attr source  stateChanged
attr title  "contention state, vector"
vector 24  Net80211test.host[0].wlan[0].radio  radioMode:vector  ETV
attr interpolationmode  sample-hold
attr source  radioModeChanged
attr title  "Radio mode, vector"
vector 27  Net80211test.host[0].wlan[0].radio  radioChannel:vector  ETV
attr interpolationmode  sample-hold
attr source  radioChannelChanged
attr title  "Radio channel, vector"
vector 53  Net80211test.host[1].wlan[0].radio  radioMode:vector  ETV
attr interpolationmode  sample-hold
attr source  radioModeChanged
attr title  "Radio mode, vector"
vector 56  Net80211test.host[1].wlan[0].radio  radioChannel:vector  ETV
attr interpolationmode  sample-hold
attr source  radioChannelChanged
attr title  "Radio channel, vector"
vector 82  Net80211test.host[2].wlan[0].radio  radioMode:vector  ETV
attr interpolationmode  sample-hold
attr source  radioModeChanged
attr title  "Radio mode, vector"
vector 85  Net80211test.host[2].wlan[0].radio  radioChannel:vector  ETV
attr interpolationmode  sample-hold
attr source  radioChannelChanged
attr title  "Radio channel, vector"
vector 111  Net80211test.host[3].wlan[0].radio  radioMode:vector  ETV
attr interpolationmode  sample-hold
attr source  radioModeChanged
attr title  "Radio mode, vector"
vector 114  Net80211test.host[3].wlan[0].radio  radioChannel:vector  ETV
attr interpolationmode  sample-hold
attr source  radioChannelChanged
attr title  "Radio channel, vector"
vector 140  Net80211test.host[4].wlan[0].radio  radioMode:vector  ETV
attr interpolationmode  sample-hold
attr source  radioModeChanged
attr title  "Radio mode, vector"
vector 143  Net80211test.host[4].wlan[0].radio  radioChannel:vector  ETV
attr interpolationmode  sample-hold
attr source  radioChannelChanged
attr title  "Radio channel, vector"
vector 169  Net80211test.host[5].wlan[0].radio  radioMode:vector  ETV
attr interpolationmode  sample-hold
attr source  radioModeChanged
attr title  "Radio mode, vector"
vector 172  Net80211test.host[5].wlan[0].radio  radioChannel:vector  ETV
attr interpolationmode  sample-hold
attr source  radioChannelChanged
attr title  "Radio channel, vector"
vector 25  Net80211test.host[0].wlan[0].radio  receptionState:vector  ETV
attr interpolationmode  sample-hold
attr source  receptionStateChanged
attr title  "Radio reception state, vector"
vector 54  Net80211test.host[1].wlan[0].radio  receptionState:vector  ETV
attr interpolationmode  sample-hold
attr source  receptionStateChanged
attr title  "Radio reception state, vector"
vector 83  Net80211test.host[2].wlan[0].radio  receptionState:vector  ETV
attr interpolationmode  sample-hold
attr source  receptionStateChanged
attr title  "Radio reception state, vector"
vector 112  Net80211test.host[3].wlan[0].radio  receptionState:vector  ETV
attr interpolationmode  sample-hold
attr source  receptionStateChanged
attr title  "Radio reception state, vector"
vector 141  Net80211test.host[4].wlan[0].radio  receptionState:vector  ETV
attr interpolationmode  sample-hold
attr source  receptionStateChanged
attr title  "Radio reception state, vector"
vector 170  Net80211test.host[5].wlan[0].radio  receptionState:vector  ETV
attr interpolationmode  sample-hold
attr source  receptionStateChanged
attr title  "Radio reception state, vector"
vector 0  Net80211test.host[0].udpApp[0]  sentPk:vector(packetBytes)  ETV
attr interpolationmode  none
attr source  sentPk
attr title  "packets sent, vector(packetBytes)"
vector 10  Net80211test.host[0].udp  sentPk:vector(packetBytes)  ETV
attr interpolationmode  none
attr source  sentPk
attr title  "packets sent, vector(packetBytes)"
vector 18  Net80211test.host[0].lo0.lo  rcvdPkFromHL:vector(packetBytes)  ETV
attr interpolationmode  none
attr source  packetReceivedFromUpper
attr title  "packets received from higher layer, vector(packetBytes)"
vector 19  Net80211test.host[0].lo0.lo  passedUpPk:vector(packetBytes)  ETV
attr interpolationmode  none
attr source  packetSentToUpper
attr title  "packets passed to higher layer, vector(packetBytes)"
vector 22  Net80211test.host[0].wlan[0].mac  rcvdPkFromHL:vector(packetBytes)  ETV
attr interpolationmode  none
attr source  packetReceivedFromUpper
attr title  "packets received from higher layer, vector(packetBytes)"
vector 11  Net80211test.host[0].udp  rcvdPk:vector(packetBytes)  ETV
attr interpolationmode  none
attr source  rcvdPk
attr title  "packets received, vector(packetBytes)"
vector 12  Net80211test.host[0].udp  passedUpPk:vector(count)  ETV
attr interpolationmode  none
attr title  "packets passed up, vector(count)"
vector 1  Net80211test.host[0].udpApp[0]  rcvdPk:vector(packetBytes)  ETV
attr interpolationmode  none
attr source  rcvdPk
attr title  "packets received, vector(packetBytes)"
vector 4  Net80211test.host[0].udpApp[0]  endToEndDelay:vector  ETV
attr interpolationmode  none
attr source  messageAge(rcvdPk)
attr title  "delay, vector"
attr unit  s
vector 21  Net80211test.host[0].wlan[0].mac  sentDownPk:vector(packetBytes)  ETV
attr interpolationmode  none
attr source  packetSentToLower
attr title  "packets sent to lower layer, vector(packetBytes)"
vector 26  Net80211test.host[0].wlan[0].radio  transmissionState:vector  ETV
attr interpolationmode  sample-hold
attr source  transmissionStateChanged
attr title  "Radio transmission state, vector"
vector 139  Net80211test.host[4].wlan[0].mac  rcvdPkFromLL:vector(packetBytes)  ETV
attr interpolationmode  none
attr source  packetReceivedFromLower
attr title  "packets received from lower layer, vector(packetBytes)"
vector 136  Net80211test.host[4].wlan[0].mac  passedUpPk:vector(packetBytes)  ETV
attr interpolationmode  none
attr source  packetSentToUpper
attr title  "packets passed to higher layer, vector(packetBytes)"
vector 127  Net80211test.host[4].udp  rcvdPk:vector(packetBytes)  ETV
attr interpolationmode  none
attr source  rcvdPk
attr title  "packets received, vector(packetBytes)"
vector 129  Net80211test.host[4].udp  droppedPkWrongPort:vector(count)  ETV
attr interpolationmode  none
attr title  "packets dropped (wrong port), vector(count)"
vector 168  Net80211test.host[5].wlan[0].mac  rcvdPkFromLL:vector(packetBytes)  ETV
attr interpolationmode  none
attr source  packetReceivedFromLower
attr title  "packets received from lower layer, vector(packetBytes)"
vector 165  Net80211test.host[5].wlan[0].mac  passedUpPk:vector(packetBytes)  ETV
attr interpolationmode  none
attr source  packetSentToUpper
attr title  "packets passed to higher layer, vector(packetBytes)"
vector 156  Net80211test.host[5].udp  rcvdPk:vector(packetBytes)  ETV
attr interpolationmode  none
attr source  rcvdPk
attr title  "packets received, vector(packetBytes)"
vector 158  Net80211test.host[5].udp  droppedPkWrongPort:vector(count)  ETV
attr interpolationmode  none
attr title  "packets dropped (wrong port), vector(count)"
vector 58  Net80211test.host[2].udpApp[0]  sentPk:vector(packetBytes)  ETV
attr interpolationmode  none
attr source  sentPk
attr title  "packets sent, vector(packetBytes)"
vector 68  Net80211test.host[2].udp  sentPk:vector(packetBytes)  ETV
attr interpolationmode  none
attr source  sentPk
attr title  "packets sent, vector(packetBytes)"
vector 76  Net80211test.host[2].lo0.lo  rcvdPkFromHL:vector(packetBytes)  ETV
attr interpolationmode  none
attr source  packetReceivedFromUpper
attr title  "packets received from higher layer, vector(packetBytes)"
vector 77  Net80211test.host[2].lo0.lo  passedUpPk:vector(packetBytes)  ETV
attr interpolationmode  none
attr source  packetSentToUpper
attr title  "packets passed to higher layer, vector(packetBytes)"
vector 80  Net80211test.host[2].wlan[0].mac  rcvdPkFromHL:vector(packetBytes)  ETV
attr interpolationmode  none
attr source  packetReceivedFromUpper
attr title  "packets received from higher layer, vector(packetBytes)"
vector 69  Net80211test.host[2].udp  rcvdPk:vector(packetBytes)  ETV
attr interpolationmode  none
attr source  rcvdPk
attr title  "packets received, vector(packetBytes)"
vector 70  Net80211test.host[2].udp  passedUpPk:vector(count)  ETV
attr interpolationmode  none
attr title  "packets passed up, vector(count)"
vector 59  Net80211test.host[2].udpApp[0]  rcvdPk:vector(packetBytes)  ETV
attr interpolationmode  none
attr source  rcvdPk
attr title  "packets received, vector(packetBytes)"
vector 62  Net80211test.host[2].udpApp[0]  endToEndDelay:vector  ETV
attr interpolationmode  none
attr source  messageAge(rcvdPk)
attr title  "delay, vector"
attr unit  s
vector 79  Net80211test.host[2].wlan[0].mac  sentDownPk:vector(packetBytes)  ETV
attr interpolationmode  none
attr source  packetSentToLower
attr title  "packets sent to lower layer, vector(packetBytes)"
vector 84  Net80211test.host[2].wlan[0].radio  transmissionState:vector  ETV
attr interpolationmode  sample-hold
attr source  transmissionStateChanged
attr title  "Radio transmission state, vector"
vector 52  Net80211test.host[1].wlan[0].mac  rcvdPkFromLL:vector(packetBytes)  ETV
attr interpolationmode  none
attr source  packetReceivedFromLower
attr title  "packets received from lower layer, vector(packetBytes)"
vector 49  Net80211test.host[1].wlan[0].mac  passedUpPk:vector(packetBytes)  ETV
attr interpolationmode  none
attr source  packetSentToUpper
attr title  "packets passed to higher layer, vector(packetBytes)"
vector 40  Net80211test.host[1].udp  rcvdPk:vector(packetBytes)  ETV
attr interpolationmode  none
attr source  rcvdPk
attr title  "packets received, vector(packetBytes)"
vector 42  Net80211test.host[1].udp  droppedPkWrongPort:vector(count)  ETV
attr interpolationmode  none
attr title  "packets dropped (wrong port), vector(count)"
vector 110  Net80211test.host[3].wlan[0].mac  rcvdPkFromLL:vector(packetBytes)  ETV
attr interpolationmode  none
attr source  packetReceivedFromLower
attr title  "packets received from lower layer, vector(packetBytes)"
vector 107  Net80211test.host[3].wlan[0].mac  passedUpPk:vector(packetBytes)  ETV
attr interpolationmode  none
attr source  packetSentToUpper
attr title  "packets passed to higher layer, vector(packetBytes)"
vector 98  Net80211test.host[3].udp  rcvdPk:vector(packetBytes)  ETV
attr interpolationmode  none
attr source  rcvdPk
attr title  "packets received, vector(packetBytes)"
vector 100  Net80211test.host[3].udp  droppedPkWrongPort:vector(count)  ETV
attr interpolationmode  none
attr title  "packets dropped (wrong port), vector(count)"
vector 116  Net80211test.host[4].udpApp[0]  sentPk:vector(packetBytes)  ETV
attr interpolationmode  none
attr source  sentPk
attr title  "packets sent, vector(packetBytes)"
vector 126  Net80211test.host[4].udp  sentPk:vector(packetBytes)  ETV
attr interpolationmode  none
attr source  sentPk
attr title  "packets sent, vector(packetBytes)"
vector 134  Net80211test.host[4].lo0.lo  rcvdPkFromHL:vector(packetBytes)  ETV
attr interpolationmode  none
attr source  packetReceivedFromUpper
attr title  "packets received from higher layer, vector(packetBytes)"
vector 135  Net80211test.host[4].lo0.lo  passedUpPk:vector(packetBytes)  ETV
attr interpolationmode  none
attr source  packetSentToUpper
attr title  "packets passed to higher layer, vector(packetBytes)"
vector 138  Net80211test.host[4].wlan[0].mac  rcvdPkFromHL:vector(packetBytes)  ETV
attr interpolationmode  none
attr source  packetReceivedFromUpper
attr title  "packets received from higher layer, vector(packetBytes)"
vector 128  Net80211test.host[4].udp  passedUpPk:vector(count)  ETV
attr interpolationmode  none
attr title  "packets passed up, vector(count)"
vector 117  Net80211test.host[4].udpApp[0]  rcvdPk:vector(packetBytes)  ETV
attr interpolationmode  none
attr source  rcvdPk
attr title  "packets received, vector(packetBytes)"
vector 120  Net80211test.host[4].udpApp[0]  endToEndDelay:vector  ETV
attr interpolationmode  none
attr source  messageAge(rcvdPk)
attr title  "delay, vector"
attr unit  s
vector 137  Net80211test.host[4].wlan[0].mac  sentDownPk:vector(packetBytes)  ETV
attr interpolationmode  none
attr source  packetSentToLower
attr title  "packets sent to lower layer, vector(packetBytes)"
vector 142  Net80211test.host[4].wlan[0].radio  transmissionState:vector  ETV
attr interpolationmode  sample-hold
attr source  transmissionStateChanged
attr title  "Radio transmission state, vector"
vector 23  Net80211test.host[0].wlan[0].mac  rcvdPkFromLL:vector(packetBytes)  ETV
attr interpolationmode  none
attr source  packetReceivedFromLower
attr title  "packets received from lower layer, vector(packetBytes)"
vector 20  Net80211test.host[0].wlan[0].mac  passedUpPk:vector(packetBytes)  ETV
attr interpolationmode  none
attr source  packetSentToUpper
attr title  "packets passed to higher layer, vector(packetBytes)"
vector 87  Net80211test.host[3].udpApp[0]  sentPk:vector(packetBytes)  ETV
attr interpolationmode  none
attr source  sentPk
attr title  "packets sent, vector(packetBytes)"
vector 97  Net80211test.host[3].udp  sentPk:vector(packetBytes)  ETV
attr interpolationmode  none
attr source  sentPk
attr title  "packets sent, vector(packetBytes)"
vector 105  Net80211test.host[3].lo0.lo  rcvdPkFromHL:vector(packetBytes)  ETV
attr interpolationmode  none
attr source  packetReceivedFromUpper
attr title  "packets received from higher layer, vector(packetBytes)"
vector 106  Net80211test.host[3].lo0.lo  passedUpPk:vector(packetBytes)  ETV
attr interpolationmode  none
attr source  packetSentToUpper
attr title  "packets passed to higher layer, vector(packetBytes)"
vector 109  Net80211test.host[3].wlan[0].mac  rcvdPkFromHL:vector(packetBytes)  ETV
attr interpolationmode  none
attr source  packetReceivedFromUpper
attr title  "packets received from higher layer, vector(packetBytes)"
vector 99  Net80211test.host[3].udp  passedUpPk:vector(count)  ETV
attr interpolationmode  none
attr title  "packets passed up, vector(count)"
vector 88  Net80211test.host[3].udpApp[0]  rcvdPk:vector(packetBytes)  ETV
attr interpolationmode  none
attr source  rcvdPk
attr title  "packets received, vector(packetBytes)"
vector 91  Net80211test.host[3].udpApp[0]  endToEndDelay:vector  ETV
attr interpolationmode  none
attr source  messageAge(rcvdPk)
attr title  "delay, vector"
attr unit  s
vector 108  Net80211test.host[3].wlan[0].mac  sentDownPk:vector(packetBytes)  ETV
attr interpolationmode  none
attr source  packetSentToLower
attr title  "packets sent to lower layer, vector(packetBytes)"
vector 113  Net80211test.host[3].wlan[0].radio  transmissionState:vector  ETV
attr interpolationmode  sample-hold
attr source  transmissionStateChanged
attr title  "Radio transmission state, vector"
vector 81  Net80211test.host[2].wlan[0].mac  rcvdPkFromLL:vector(packetBytes)  ETV
attr interpolationmode  none
attr source  packetReceivedFromLower
attr title  "packets received from lower layer, vector(packetBytes)"
vector 78  Net80211test.host[2].wlan[0].mac  passedUpPk:vector(packetBytes)  ETV
attr interpolationmode  none
attr source  packetSentToUpper
attr title  "packets passed to higher layer, vector(packetBytes)"
vector 145  Net80211test.host[5].udpApp[0]  sentPk:vector(packetBytes)  ETV
attr interpolationmode  none
attr source  sentPk
attr title  "packets sent, vector(packetBytes)"
vector 155  Net80211test.host[5].udp  sentPk:vector(packetBytes)  ETV
attr interpolationmode  none
attr source  sentPk
attr title  "packets sent, vector(packetBytes)"
vector 163  Net80211test.host[5].lo0.lo  rcvdPkFromHL:vector(packetBytes)  ETV
attr interpolationmode  none
attr source  packetReceivedFromUpper
attr title  "packets received from higher layer, vector(packetBytes)"
vector 164  Net80211test.host[5].lo0.lo  passedUpPk:vector(packetBytes)  ETV
attr interpolationmode  none
attr source  packetSentToUpper
attr title  "packets passed to higher layer, vector(packetBytes)"
vector 167  Net80211test.host[5].wlan[0].mac  rcvdPkFromHL:vector(packetBytes)  ETV
attr interpolationmode  none
attr source  packetReceivedFromUpper
attr title  "packets received from higher layer, vector(packetBytes)"
vector 157  Net80211test.host[5].udp  passedUpPk:vector(count)  ETV
attr interpolationmode  none
attr title  "packets passed up, vector(count)"
vector 146  Net80211test.host[5].udpApp[0]  rcvdPk:vector(packetBytes)  ETV
attr interpolationmode  none
attr source  rcvdPk
attr title  "packets received, vector(packetBytes)"
vector 149  Net80211test.host[5].udpApp[0]  endToEndDelay:vector  ETV
attr interpolationmode  none
attr source  messageAge(rcvdPk)
attr title  "delay, vector"
attr unit  s
vector 166  Net80211test.host[5].wlan[0].mac  sentDownPk:vector(packetBytes)  ETV
attr interpolationmode  none
attr source  packetSentToLower
attr title  "packets sent to lower layer, vector(packetBytes)"
vector 171  Net80211test.host[5].wlan[0].radio  transmissionState:vector  ETV
attr interpolationmode  sample-hold
attr source  transmissionStateChanged
attr title  "Radio transmission state, vector"
vector 29  Net80211test.host[1].udpApp[0]  sentPk:vector(packetBytes)  ETV
attr interpolationmode  none
attr source  sentPk
attr title  "packets sent, vector(packetBytes)"
vector 39  Net80211test.host[1].udp  sentPk:vector(packetBytes)  ETV
attr interpolationmode  none
attr source  sentPk
attr title  "packets sent, vector(packetBytes)"
vector 47  Net80211test.host[1].lo0.lo  rcvdPkFromHL:vector(packetBytes)  ETV
attr interpolationmode  none
attr source  packetReceivedFromUpper
attr title  "packets received from higher layer, vector(packetBytes)"
vector 48  Net80211test.host[1].lo0.lo  passedUpPk:vector(packetBytes)  ETV
attr interpolationmode  none
attr source  packetSentToUpper
attr title  "packets passed to higher layer, vector(packetBytes)"
vector 51  Net80211test.host[1].wlan[0].mac  rcvdPkFromHL:vector(packetBytes)  ETV
attr interpolationmode  none
attr source  packetReceivedFromUpper
attr title  "packets received from higher layer, vector(packetBytes)"
vector 41  Net80211test.host[1].udp  passedUpPk:vector(count)  ETV
attr interpolationmode  none
attr title  "packets passed up, vector(count)"
vector 30  Net80211test.host[1].udpApp[0]  rcvdPk:vector(packetBytes)  ETV
attr interpolationmode  none
attr source  rcvdPk
attr title  "packets received, vector(packetBytes)"
vector 33  Net80211test.host[1].udpApp[0]  endToEndDelay:vector  ETV
attr interpolationmode  none
attr source  messageAge(rcvdPk)
attr title  "delay, vector"
attr unit  s
vector 50  Net80211test.host[1].wlan[0].mac  sentDownPk:vector(packetBytes)  ETV
attr interpolationmode  none
attr source  packetSentToLower
attr title  "packets sent to lower layer, vector(packetBytes)"
vector 55  Net80211test.host[1].wlan[0].radio  transmissionState:vector  ETV
attr interpolationmode  sample-hold
attr source  transmissionStateChanged
attr title  "Radio transmission state, vector"
0	22294 1667 490 21314 3.947009828233 63.416261367139 59 1250 1250 73750 92187500
1	23961 4412 501 21323 3.947009828233 63.416261367139 155 1250 1250 193750 242187500
4	28373 5190 501 21323 3.947009828233 63.416261367139 155 0 0.000466821866 0.044786196258 2.0893788619251e-05
10	33563 1726 492 21315 3.947009828233 63.416261367139 59 1258 1258 74222 93371276
11	35289 4567 499 21321 3.947009828233 63.416261367139 155 1258 1258 194990 245297420
12	39856 4304 499 21321 3.947009828233 63.416261367139 155 1 155 12090 1253330
18	44160 1726 495 21317 3.947009828233 63.416261367139 59 1278 1278 75402 96363756
19	45886 1726 495 21317 3.947009828233 63.416261367139 59 1278 1278 75402 96363756
20	47612 2841 708 21257 4.635164193637 63.093502043398 96 1314 1314 126144 165753216
21	50453 1726 502 21324 3.947009828233 63.416261367139 59 1314 1314 77526 101869164
22	52179 1726 498 21320 3.947009828233 63.416261367139 59 1314 1314 77526 101869164
23	53905 2841 708 21257 4.635164193637 63.093502043398 96 1314 1314 126144 165753216
24	56746 3116 0 21333 0 63.416727367139 120 0 3 297 771
25	59862 8213 0 21333 0 63.416727367139 311 0 3 444 1020
26	68075 6196 503 21333 3.947009828233 63.416727367139 236 0 2 236 354
27	74271 9 0 0 0 0 1 0 0 0 0
28	74280 25738 0 21333 0 63.416727367139 978 0 3 944 2596
29	100018 1722 1079 21224 5.852570675034 63.09303548364 59 1250 1250 73750 92187500
30	101740 5458 1090 21233 5.852570675034 63.09303548364 186 1250 1250 232500 290625000
33	107198 6541 1090 21233 5.852570675034 63.09303548364 186 0 0.000466822105 0.059240939864 2.7633776727357e-05
39	113739 1722 1081 21225 5.852570675034 63.09303548364 59 1258 1258 74222 93371276
40	115461 5623 594 21344 4.251470899417 63.416727912506 192 1258 1258 241536 303852288
41	121084 5193 1088 21344 5.852570675034 63.416727912506 187 1 187 17578 2197250
42	126277 120 594 1042 4.251470899417 5.674936930573 5 1 5 15 55
47	126397 1722 1084 21227 5.852570675034 63.09303548364 59 1278 1278 75402 96363756
48	128119 1722 1084 21227 5.852570675034 63.09303548364 59 1278 1278 75402 96363756
49	129841 3901 591 21341 4.251470899417 63.416727912506 133 1314 1314 174762 229637268
50	133742 1722 1091 21234 5.852570675034 63.09303548364 59 1314 1314 77526 101869164
51	135464 1722 1087 21230 5.852570675034 63.09303548364 59 1314 1314 77526 101869164
52	137186 3901 591 21341 4.251470899417 63.416727912506 133 1314 1314 174762 229637268
53	141087 3108 0 21243 0 63.09350148364 120 0 3 297 771
54	144195 10155 0 21340 0 63.416727912506 387 0 3 595 1395
55	154350 6180 1092 21243 5.852570675034 63.09350148364 236 0 2 236 354
56	160530 9 0 0 0 0 1 0 0 0 0
57	160539 29598 0 21340 0 63.416727912506 1130 0 3 944 2596
58	190137 1700 568 20950 4.251004747152 62.284575260515 58 1250 1250 72500 90625000
59	191837 6219 579 21255 4.251004747152 63.093501908412 212 1250 1250 265000 331250000
62	198056 7570 579 21255 4.251004747152 63.093501908412 212 0 0.000466822476 0.071826626509 3.3500423401431e-05
68	205626 1700 570 20951 4.251004747152 62.284575260515 58 1258 1258 72964 91788712
69	207326 6219 577 21254 4.251004747152 63.093501908412 212 1258 1258 266696 335503568
70	213545 5899 577 21254 4.251004747152 63.093501908412 212 1 212 22578 3198550
76	219444 1700 573 20953 4.251004747152 62.284575260515 58 1278 1278 74124 94730472
77	221144 1700 573 20953 4.251004747152 62.284575260515 58 1278 1278 74124 94730472
78	222844 4519 756 21251 4.684777882574 63.093501908412 154 1314 1314 202356 265895784
79	227363 1700 580 20960 4.251004747152 62.284575260515 58 1314 1314 76212 100142568
80	229063 1700 576 20956 4.251004747152 62.284575260515 58 1314 1314 76212 100142568
81	230763 4519 756 21251 4.684777882574 63.093501908412 154 1314 1314 202356 265895784
82	235282 3070 0 20970 0 62.285041260515 118 0 3 292 758
83	238352 11227 0 21250 0 63.093501908412 427 0 3 678 1604
84	249579 6104 581 20970 4.251004747152 62.285041260515 232 0 2 232 348
85	255683 9 0 0 0 0 1 0 0 0 0
86	255692 31628 0 21250 0 63.093501908412 1204 0 3 928 2552
87	287320 1760 728 21011 4.684311597327 62.480478307544 60 1250 1250 75000 93750000
88	289080 6704 739 21339 4.684311597327 63.416727601493 228 1250 1250 285000 356250000
91	295784 8186 739 21339 4.684311597327 63.416727601493 228 0 0.000466813782 0.078366264628 3.6555192805122e-05
97	303970 1760 730 21012 4.684311597327 62.480478307544 60 1258 1258 75480 94953840
98	305730 6731 599 21338 4.251471043372 63.416727601493 229 1258 1258 288082 362407156
99	312461 6368 737 21338 4.684311597327 63.416727601493 228 1 228 26106 3976814
100	318829 25 599 599 4.251471043372 4.251471043372 1 1 1 1 1
105	318854 1820 733 21014 4.684311597327 62.480478307544 60 1278 1278 76680 97997040
106	320674 1820 733 21014 4.684311597327 62.480478307544 60 1278 1278 76680 97997040
107	322494 5140 596 21335 4.251471043372 63.416727601493 169 1314 1314 222066 291794724
108	327634 1820 740 21021 4.684311597327 62.480478307544 60 1314 1314 78840 103595760
109	329454 1820 736 21017 4.684311597327 62.480478307544 60 1314 1314 78840 103595760
110	331274 5140 596 21335 4.251471043372 63.416727601493 169 1314 1314 222066 291794724
111	336414 3300 0 21030 0 62.480944307544 122 0 3 302 784
112	339714 12556 0 21334 0 63.416727601493 459 0 3 737 1751
113	352270 6560 741 21030 4.684311597327 62.480944307544 240 0 2 240 360
114	358830 10 0 0 0 0 1 0 0 0 0
115	358840 34972 0 21334 0 63.416727601493 1280 0 3 960 2640
116	393812 1822 685 21128 4.634698061278 62.689343514079 60 1250 1250 75000 93750000
117	395634 4567 696 21273 4.634698061278 63.09350221268 150 1250 1250 187500 234375000
120	400201 5276 696 21273 4.634698061278 63.09350221268 150 0 0.000466825798 0.041983533546 1.9584639165312e-05
126	405477 1822 687 21129 4.634698061278 62.689343514079 60 1258 1258 75480 94953840
127	407299 4623 516 21272 3.947475914709 63.09350221268 152 1258 1258 191216 240549728
128	411922 4309 694 21272 4.634698061278 63.09350221268 150 1 150 11325 1136275
129	416231 50 516 656 3.947475914709 4.447475948018 2 1 2 3 5
134	416281 1822 690 21131 4.634698061278 62.689343514079 60 1278 1278 76680 97997040
135	418103 1822 690 21131 4.634698061278 62.689343514079 60 1278 1278 76680 97997040
136	419925 2801 513 21269 3.947475914709 63.09350221268 92 1314 1314 120888 158846832
137	422726 1822 697 21138 4.634698061278 62.689343514079 60 1314 1314 78840 103595760
138	424548 1822 693 21134 4.634698061278 62.689343514079 60 1314 1314 78840 103595760
139	426370 2801 513 21269 3.947475914709 63.09350221268 92 1314 1314 120888 158846832
140	429171 3304 0 21147 0 62.689809514079 122 0 3 302 784
141	432475 8344 0 21268 0 63.09350221268 305 0 3 429 981
142	440819 6568 698 21147 4.634698061278 62.689809514079 240 0 2 240 360
143	447387 10 0 0 0 0 1 0 0 0 0
144	447397 26560 0 21268 0 63.09350221268 972 0 3 960 2640
145	473957 1762 1010 21076 5.674470479187 62.609957039762 58 1250 1250 72500 90625000
146	475719 6662 1021 21267 5.674470479187 63.093502131382 219 1250 1250 273750 342187500
149	482381 8086 1021 21267 5.674470479187 63.093502131382 219 0 0.000466824928 0.075101974739 3.503296713833e-05
155	490467 1762 1012 21077 5.674470479187 62.609957039762 58 1258 1258 72964 91788712
156	492229 6857 521 21266 3.947476655313 63.093502131382 226 1258 1258 284308 357659464
157	499086 6335 1019 21266 5.674470479187 63.093502131382 219 1 219 24090 3525170
158	505421 174 521 944 3.947476655313 5.184778018587 7 1 7 28 140
163	505595 1762 1015 21079 5.674470479187 62.609957039762 58 1278 1278 74124 94730472
164	507357 1762 1015 21079 5.674470479187 62.609957039762 58 1278 1278 74124 94730472
165	509119 5095 518 21263 3.947476655313 63.093502131382 168 1314 1314 220752 290068128
166	514214 1762 1022 21086 5.674470479187 62.609957039762 58 1314 1314 76212 100142568
167	515976 1762 1018 21082 5.674470479187 62.609957039762 58 1314 1314 76212 100142568
168	517738 5095 518 21263 3.947476655313 63.093502131382 168 1314 1314 220752 290068128
169	522833 3196 0 21095 0 62.610423039762 118 0 3 292 758
170	526029 12396 0 21329 0 63.416262172388 454 0 3 734 1748
171	538425 6352 1023 21095 5.674470479187 62.610423039762 232 0 2 232 348
172	544777 10 0 0 0 0 1 0 0 0 0
173	544787 34340 0 21329 0 63.416262172388 1258 0 3 928 2552
