version 2
run Ping1-0-20160703-13:22:34-5459
attr configname Ping1
attr datetime 20160703-13:22:34
attr experiment Ping1
attr inifile omnetpp.ini
attr iterationvars ""
attr iterationvars2 $repetition=0
attr measurement ""
attr network Net80211test
attr processid 5459
attr repetition 0
attr replication #0
attr resultdir results
attr runnumber 0
attr seedset 0
param **.constraintAreaMaxX 600m
param **.constraintAreaMaxY 400m
param **.constraintAreaMaxZ 0m
param **.constraintAreaMinX 0m
param **.constraintAreaMinY 0m
param **.constraintAreaMinZ 0m
param **.host*.mobility.changeAngleBy "normal(0deg, 30deg)"
param **.host*.mobility.changeInterval "truncnormal(2s, 0.5s)"
param **.host*.mobility.initFromDisplayString false
param **.host*.mobility.speed "truncnormal(20mps, 8mps)"
param **.host*.mobility.updateInterval 100ms
param **.host*.mobilityType "\"MassMobility\""
param **.pingApp[*].printPing true
param **.pingApp[0].startTime uniform(1s,5s)
param **.pingApp[1].startTime 5s+uniform(1s,5s)
param **.wlan[*].bitrate 2Mbps
param **.wlan[*].mac.address "\"auto\""
param **.wlan[*].mac.cwMinBroadcast 31
param **.wlan[*].mac.cwMinData 7
param **.wlan[*].mac.maxQueueSize 14
param **.wlan[*].mac.retryLimit 7
param **.wlan[*].mac.rtsThresholdBytes 3000B
param **.wlan[*].mgmt.frameCapacity 10
param **.wlan[*].radio.receiver.sensitivity -85dBm
param **.wlan[*].radio.receiver.snirThreshold 4dB
param **.wlan[*].radio.transmitter.power 2mW
param *.host[*].numPingApps 2
param *.host[*].pingApp[*].destAddr "\"host[0]\""
param *.host[0].numPingApps 0
param *.numHosts 2

vector 13  Net80211test.host[0].wlan[0].mac.ctn[0]  state:vector  ETV
attr interpolationmode  none
attr source  stateChanged
attr title  "contention state, vector"
vector 37  Net80211test.host[1].wlan[0].mac.ctn[0]  state:vector  ETV
attr interpolationmode  none
attr source  stateChanged
attr title  "contention state, vector"
vector 9  Net80211test.host[0].wlan[0].radio  radioMode:vector  ETV
attr interpolationmode  sample-hold
attr source  radioModeChanged
attr title  "Radio mode, vector"
vector 12  Net80211test.host[0].wlan[0].radio  radioChannel:vector  ETV
attr interpolationmode  sample-hold
attr source  radioChannelChanged
attr title  "Radio channel, vector"
vector 33  Net80211test.host[1].wlan[0].radio  radioMode:vector  ETV
attr interpolationmode  sample-hold
attr source  radioModeChanged
attr title  "Radio mode, vector"
vector 36  Net80211test.host[1].wlan[0].radio  radioChannel:vector  ETV
attr interpolationmode  sample-hold
attr source  radioChannelChanged
attr title  "Radio channel, vector"
vector 10  Net80211test.host[0].wlan[0].radio  receptionState:vector  ETV
attr interpolationmode  sample-hold
attr source  receptionStateChanged
attr title  "Radio reception state, vector"
vector 34  Net80211test.host[1].wlan[0].radio  receptionState:vector  ETV
attr interpolationmode  sample-hold
attr source  receptionStateChanged
attr title  "Radio reception state, vector"
vector 17  Net80211test.host[1].pingApp[0]  pingTxSeq:vector  ETV
attr interpolationmode  none
attr title  "ping tx seq, vector"
vector 24  Net80211test.host[1].networkLayer.arp  sentReq:vector  ETV
attr title  "ARP request sent, vector"
vector 31  Net80211test.host[1].wlan[0].mac  rcvdPkFromHL:vector(packetBytes)  ETV
attr interpolationmode  none
attr source  packetReceivedFromUpper
attr title  "packets received from higher layer, vector(packetBytes)"
vector 30  Net80211test.host[1].wlan[0].mac  sentDownPk:vector(packetBytes)  ETV
attr interpolationmode  none
attr source  packetSentToLower
attr title  "packets sent to lower layer, vector(packetBytes)"
vector 35  Net80211test.host[1].wlan[0].radio  transmissionState:vector  ETV
attr interpolationmode  sample-hold
attr source  transmissionStateChanged
attr title  "Radio transmission state, vector"
vector 22  Net80211test.host[1].pingApp[1]  pingTxSeq:vector  ETV
attr interpolationmode  none
attr title  "ping tx seq, vector"
vector 8  Net80211test.host[0].wlan[0].mac  rcvdPkFromLL:vector(packetBytes)  ETV
attr interpolationmode  none
attr source  packetReceivedFromLower
attr title  "packets received from lower layer, vector(packetBytes)"
vector 5  Net80211test.host[0].wlan[0].mac  passedUpPk:vector(packetBytes)  ETV
attr interpolationmode  none
attr source  packetSentToUpper
attr title  "packets passed to higher layer, vector(packetBytes)"
vector 1  Net80211test.host[0].networkLayer.arp  sentReply:vector  ETV
attr title  "ARP replies sent, vector"
vector 7  Net80211test.host[0].wlan[0].mac  rcvdPkFromHL:vector(packetBytes)  ETV
attr interpolationmode  none
attr source  packetReceivedFromUpper
attr title  "packets received from higher layer, vector(packetBytes)"
vector 6  Net80211test.host[0].wlan[0].mac  sentDownPk:vector(packetBytes)  ETV
attr interpolationmode  none
attr source  packetSentToLower
attr title  "packets sent to lower layer, vector(packetBytes)"
vector 11  Net80211test.host[0].wlan[0].radio  transmissionState:vector  ETV
attr interpolationmode  sample-hold
attr source  transmissionStateChanged
attr title  "Radio transmission state, vector"
vector 32  Net80211test.host[1].wlan[0].mac  rcvdPkFromLL:vector(packetBytes)  ETV
attr interpolationmode  none
attr source  packetReceivedFromLower
attr title  "packets received from lower layer, vector(packetBytes)"
vector 29  Net80211test.host[1].wlan[0].mac  passedUpPk:vector(packetBytes)  ETV
attr interpolationmode  none
attr source  packetSentToUpper
attr title  "packets passed to higher layer, vector(packetBytes)"
vector 18  Net80211test.host[1].pingApp[0]  pingRxSeq:vector  ETV
attr interpolationmode  none
attr title  "ping rx seq, vector"
vector 14  Net80211test.host[1].pingApp[0]  rtt:vector  ETV
attr interpolationmode  none
attr title  "ping round-trip time, vector"
attr unit  s
vector 15  Net80211test.host[1].pingApp[0]  numLost:vector  ETV
attr interpolationmode  none
attr title  "pings lost, vector"
vector 23  Net80211test.host[1].pingApp[1]  pingRxSeq:vector  ETV
attr interpolationmode  none
attr title  "ping rx seq, vector"
vector 19  Net80211test.host[1].pingApp[1]  rtt:vector  ETV
attr interpolationmode  none
attr title  "ping round-trip time, vector"
attr unit  s
vector 20  Net80211test.host[1].pingApp[1]  numLost:vector  ETV
attr interpolationmode  none
attr title  "pings lost, vector"
1	783	21.195304819246	1
1	21235	145.371429231182	1
5	780	21.195304819246	64
5	819	21.197120439076	120
5	883	21.372051248636	120
5	957	22.195926720572	120
5	1018	22.372051170456	120
5	1092	23.195926681781	120
5	1153	23.372051129834	120
5	1226	24.195926650271	120
5	1287	24.372051103896	120
5	1361	25.195926608382	120
5	1421	25.372051059046	120
5	1496	26.195926614866	120
5	1555	26.372051079493	120
5	1630	27.195926644349	120
5	1689	27.372051096643	120
5	1764	28.195926622051	120
5	1824	28.372051074343	120
5	1898	29.195926610392	120
5	1959	29.372051065858	120
5	2032	30.195926605624	120
5	2094	30.372051059898	120
5	2168	31.195926608905	120
5	2229	31.37205106846	120
5	2302	32.19592662732	120
5	2363	32.372051086941	120
5	2438	33.195926651554	120
5	2499	33.372051115054	120
5	2572	34.195926694918	120
5	2633	34.372051151226	120
5	2706	35.195926636733	120
5	2767	35.372051093653	120
5	2841	36.19592666496	120
5	2901	36.372051133793	120
5	2975	37.195926747008	120
5	3035	37.372051220278	120
5	3110	38.195926823005	120
5	6408	56.195926790121	120
5	6468	56.372051229513	120
5	6542	57.195926703792	120
5	6602	57.372051147721	120
5	6677	58.195926634566	120
5	6738	58.37205108101	120
5	6811	59.195926601763	120
5	6872	59.372051054551	120
5	6946	60.195926588472	120
5	7006	60.372051047147	120
5	7081	61.195926611244	120
5	7141	61.372051073268	120
5	7215	62.195926645687	120
5	7276	62.37205111045	120
5	7349	63.195926698699	120
5	7410	63.372051170355	120
5	7483	64.195926782699	120
5	7544	64.372051243208	120
5	7617	65.195926806378	120
5	7678	65.372051266888	120
5	7751	66.195926830068	120
5	7812	66.372051288362	120
5	7886	67.195926824699	120
5	7947	67.372051279382	120
5	8021	68.195926814575	120
5	8081	68.372051268829	120
5	8156	69.195926811018	120
5	8215	69.372051270967	120
5	12063	90.37205127479	120
5	12138	91.195926729982	120
5	12197	91.372051172228	120
5	12272	92.195926658325	120
5	12331	92.372051115338	120
5	12406	93.195926679965	120
5	12466	93.372051147968	120
5	12540	94.195926760675	120
5	12601	94.372051244338	120
5	17188	119.372051289212	120
5	17263	120.195926812293	120
5	17323	120.372051268469	120
5	17397	121.195926812663	120
5	17458	121.372051269898	120
5	17532	122.195926821811	120
5	17593	122.372051291459	120
5	21232	145.371429231182	64
5	21275	145.373124762193	120
5	21300	145.374242292697	120
5	21348	145.376355822517	120
5	21456	146.195926638158	120
5	21517	146.37205106625	120
5	21590	147.195926478867	120
5	21652	147.372050903877	120
5	21725	148.195926355383	120
5	21786	148.372050793592	120
5	21860	149.195926277815	120
5	21920	149.372050723312	120
5	21995	150.195926216344	120
5	22055	150.372050662051	120
5	22130	151.195926149268	120
5	22190	151.372050591967	120
5	22264	152.195926072021	120
5	22324	152.372050514884	120
5	22398	153.195926024203	120
5	22458	153.372050489621	120
5	22533	154.195926094019	120
5	22593	154.372050567489	120
5	22667	155.195926167457	120
5	22728	155.372050635787	120
5	22801	156.195926233907	120
5	22862	156.372050700833	120
5	22935	157.195926280544	120
5	22996	157.372050742405	120
5	23069	158.195926284002	120
5	23130	158.372050742288	120
5	23204	159.195926297924	120
5	23265	159.372050751842	120
5	23338	160.195926287996	120
5	23399	160.372050743981	120
5	23473	161.195926301722	120
5	23534	161.372050762199	120
5	23607	162.195926282494	120
5	23668	162.372050733513	120
5	23742	163.19592624364	120
5	23802	163.372050687273	120
5	23877	164.195926160942	120
5	23937	164.372050602888	120
5	24011	165.195926106895	120
5	24072	165.372050569849	120
5	24146	166.195926196011	120
5	24206	166.372050676327	120
5	24280	167.195926348277	120
5	24340	167.372050833778	120
5	24414	168.195926473339	120
5	24475	168.37205095513	120
5	24549	169.195926527869	120
5	24609	169.372050985802	120
5	24683	170.195926540629	120
5	24744	170.37205100009	120
5	24817	171.195926538052	120
5	24878	171.372050993764	120
5	24951	172.195926538814	120
5	25012	172.372050996796	120
5	25086	173.195926555496	120
5	25146	173.372051015904	120
5	25220	174.19592658256	120
5	25281	174.372051044561	120
5	25355	175.195926612233	120
5	25415	175.372051073706	120
5	25489	176.195926641687	120
5	25549	176.372051103287	120
5	25623	177.195926654242	120
5	25684	177.372051113002	120
5	25757	178.19592666883	120
5	25818	178.372051127818	120
5	25891	179.195926685443	120
5	25952	179.37205114581	120
5	26026	180.195926725293	120
5	26086	180.372051189508	120
5	26160	181.195926770725	120
5	26220	181.372051235234	120
5	26295	182.195926766833	120
5	26356	182.372051219445	120
5	26430	183.195926757287	120
5	26491	183.37205121954	120
5	26564	184.195926767759	120
5	26625	184.372051224364	120
5	26700	185.195926780806	120
5	26761	185.372051244541	120
5	26834	186.195926827009	120
5	26895	186.372051293184	120
5	29923	203.195926703115	120
5	29983	203.372051127096	120
5	30058	204.195926546813	120
5	30117	204.372050979241	120
5	30193	205.195926442064	120
5	30252	205.372050888555	120
5	30327	206.1959264077	120
5	30386	206.37205086381	120
5	30461	207.195926439537	120
5	30522	207.372050905943	120
5	30595	208.195926509338	120
5	30656	208.372050980703	120
5	30730	209.195926605743	120
5	30790	209.372051082586	120
5	30865	210.195926714627	120
5	30924	210.372051188879	120
5	30999	211.195926818907	120
5	31059	211.37205129378	120
6	788	21.195494819246	64
6	826	21.197130439076	14
6	837	21.197604439076	120
6	890	21.372061248636	14
6	901	21.372435248636	120
6	964	22.195936720572	14
6	975	22.196310720572	120
6	1025	22.372061170456	14
6	1036	22.372415170456	120
6	1099	23.195936681781	14
6	1110	23.196370681781	120
6	1160	23.372061129834	14
6	1171	23.372415129834	120
6	1233	24.195936650271	14
6	1244	24.196390650271	120
6	1294	24.372061103896	14
6	1305	24.372555103896	120
6	1368	25.195936608382	14
6	1379	25.196290608382	120
6	1428	25.372061059046	14
6	1439	25.372475059046	120
6	1503	26.195936614866	14
6	1514	26.196310614866	120
6	1562	26.372061079493	14
6	1573	26.372515079493	120
6	1637	27.195936644349	14
6	1648	27.196350644349	120
6	1696	27.372061096643	14
6	1707	27.372555096643	120
6	1771	28.195936622051	14
6	1782	28.196310622051	120
6	1831	28.372061074343	14
6	1842	28.372435074343	120
6	1905	29.195936610392	14
6	1916	29.196290610392	120
6	1966	29.372061065858	14
6	1977	29.372455065858	120
6	2039	30.195936605624	14
6	2050	30.196430605624	120
6	2101	30.372061059898	14
6	2112	30.372535059898	120
6	2175	31.195936608905	14
6	2186	31.196330608905	120
6	2236	31.37206106846	14
6	2247	31.37249506846	120
6	2309	32.19593662732	14
6	2320	32.19629062732	120
6	2370	32.372061086941	14
6	2381	32.372495086941	120
6	2445	33.195936651554	14
6	2456	33.196390651554	120
6	2506	33.372061115054	14
6	2517	33.372415115054	120
6	2579	34.195936694918	14
6	2590	34.196310694918	120
6	2640	34.372061151226	14
6	2651	34.372495151226	120
6	2713	35.195936636733	14
6	2724	35.196330636733	120
6	2774	35.372061093653	14
6	2785	35.372555093653	120
6	2848	36.19593666496	14
6	2859	36.19631066496	120
6	2908	36.372061133793	14
6	2919	36.372555133793	120
6	2982	37.195936747008	14
6	2993	37.196310747008	120
6	3042	37.372061220278	14
6	3053	37.372535220278	120
6	3117	38.195936823005	14
6	3128	38.196350823005	120
6	6415	56.195936790121	14
6	6426	56.196370790121	120
6	6475	56.372061229513	14
6	6486	56.372455229513	120
6	6549	57.195936703792	14
6	6560	57.196310703792	120
6	6609	57.372061147721	14
6	6620	57.372415147721	120
6	6684	58.195936634566	14
6	6695	58.196370634566	120
6	6745	58.37206108101	14
6	6756	58.37247508101	120
6	6818	59.195936601763	14
6	6829	59.196390601763	120
6	6879	59.372061054551	14
6	6890	59.372515054551	120
6	6953	60.195936588472	14
6	6964	60.196290588472	120
6	7013	60.372061047147	14
6	7024	60.372415047147	120
6	7088	61.195936611244	14
6	7099	61.196310611244	120
6	7148	61.372061073268	14
6	7159	61.372415073268	120
6	7222	62.195936645687	14
6	7233	62.196290645687	120
6	7283	62.37206111045	14
6	7294	62.37241511045	120
6	7356	63.195936698699	14
6	7367	63.196370698699	120
6	7417	63.372061170355	14
6	7428	63.372435170355	120
6	7490	64.195936782699	14
6	7501	64.196430782699	120
6	7551	64.372061243208	14
6	7562	64.372475243208	120
6	7624	65.195936806378	14
6	7635	65.196410806378	120
6	7685	65.372061266888	14
6	7696	65.372435266888	120
6	7758	66.195936830068	14
6	7769	66.196330830068	120
6	7819	66.372061288362	14
6	7830	66.372515288362	120
6	7893	67.195936824699	14
6	7904	67.196390824699	120
6	7954	67.372061279382	14
6	7965	67.372515279382	120
6	8028	68.195936814575	14
6	8039	68.196370814575	120
6	8088	68.372061268829	14
6	8099	68.372515268829	120
6	8163	69.195936811018	14
6	8174	69.196330811018	120
6	8222	69.372061270967	14
6	8233	69.372475270967	120
6	12070	90.37206127479	14
6	12081	90.37247527479	120
6	12145	91.195936729982	14
6	12156	91.196290729982	120
6	12204	91.372061172228	14
6	12215	91.372475172228	120
6	12279	92.195936658325	14
6	12290	92.196310658325	120
6	12338	92.372061115338	14
6	12349	92.372475115338	120
6	12413	93.195936679965	14
6	12424	93.196350679965	120
6	12473	93.372061147968	14
6	12484	93.372415147968	120
6	12547	94.195936760675	14
6	12558	94.196330760675	120
6	12608	94.372061244338	14
6	12619	94.372415244338	120
6	17195	119.372061289212	14
6	17206	119.372455289212	120
6	17270	120.195936812293	14
6	17281	120.196390812293	120
6	17330	120.372061268469	14
6	17341	120.372535268469	120
6	17404	121.195936812663	14
6	17415	121.196350812663	120
6	17465	121.372061269898	14
6	17476	121.372515269898	120
6	17539	122.195936821811	14
6	17550	122.196330821811	120
6	17600	122.372061291459	14
6	17611	122.372475291459	120
6	21240	145.371579231182	64
6	21282	145.373134762193	14
6	21307	145.374252292697	14
6	21318	145.374626292697	120
6	21355	145.376365822517	14
6	21366	145.376759822517	120
6	21389	145.377917351598	120
6	21463	146.195936638158	14
6	21474	146.196330638158	120
6	21524	146.37206106625	14
6	21535	146.37249506625	120
6	21597	147.195936478867	14
6	21608	147.196330478867	120
6	21659	147.372060903877	14
6	21670	147.372434903877	120
6	21732	148.195936355383	14
6	21743	148.196310355383	120
6	21793	148.372060793592	14
6	21804	148.372514793592	120
6	21867	149.195936277815	14
6	21878	149.196370277815	120
6	21927	149.372060723312	14
6	21939	149.372554723312	120
6	22002	150.195936216344	14
6	22013	150.196350216344	120
6	22062	150.372060662051	14
6	22074	150.372434662051	120
6	22137	151.195936149268	14
6	22148	151.196350149268	120
6	22197	151.372060591967	14
6	22208	151.372474591967	120
6	22271	152.195936072021	14
6	22282	152.196310072021	120
6	22331	152.372060514884	14
6	22342	152.372554514884	120
6	22405	153.195936024203	14
6	22416	153.196410024203	120
6	22465	153.372060489621	14
6	22476	153.372414489621	120
6	22540	154.195936094019	14
6	22551	154.196410094019	120
6	22600	154.372060567489	14
6	22611	154.372414567489	120
6	22674	155.195936167457	14
6	22685	155.196330167457	120
6	22735	155.372060635787	14
6	22746	155.372454635787	120
6	22808	156.195936233907	14
6	22819	156.196330233907	120
6	22869	156.372060700833	14
6	22880	156.372454700833	120
6	22942	157.195936280544	14
6	22953	157.196310280544	120
6	23003	157.372060742405	14
6	23014	157.372554742405	120
6	23076	158.195936284002	14
6	23087	158.196350284002	120
6	23137	158.372060742288	14
6	23148	158.372554742288	120
6	23211	159.195936297924	14
6	23222	159.196430297924	120
6	23272	159.372060751842	14
6	23283	159.372534751842	120
6	23345	160.195936287996	14
6	23356	160.196350287996	120
6	23406	160.372060743981	14
6	23417	160.372554743981	120
6	23480	161.195936301722	14
6	23491	161.196350301722	120
6	23541	161.372060762199	14
6	23552	161.372514762199	120
6	23614	162.195936282494	14
6	23625	162.196430282494	120
6	23675	162.372060733513	14
6	23686	162.372474733513	120
6	23749	163.19593624364	14
6	23760	163.19629024364	120
6	23809	163.372060687273	14
6	23820	163.372514687273	120
6	23884	164.195936160942	14
6	23895	164.196410160942	120
6	23944	164.372060602888	14
6	23955	164.372514602888	120
6	24018	165.195936106895	14
6	24029	165.196350106895	120
6	24079	165.372060569849	14
6	24090	165.372454569849	120
6	24153	166.195936196011	14
6	24164	166.196370196011	120
6	24213	166.372060676327	14
6	24224	166.372514676327	120
6	24287	167.195936348277	14
6	24298	167.196390348277	120
6	24347	167.372060833778	14
6	24358	167.372474833778	120
6	24421	168.195936473339	14
6	24432	168.196350473339	120
6	24482	168.37206095513	14
6	24493	168.37249495513	120
6	24556	169.195936527869	14
6	24567	169.196430527869	120
6	24616	169.372060985802	14
6	24627	169.372474985802	120
6	24690	170.195936540629	14
6	24701	170.196330540629	120
6	24751	170.37206100009	14
6	24762	170.37249500009	120
6	24824	171.195936538052	14
6	24835	171.196390538052	120
6	24885	171.372060993764	14
6	24896	171.372434993764	120
6	24958	172.195936538814	14
6	24969	172.196330538814	120
6	25019	172.372060996796	14
6	25030	172.372494996796	120
6	25093	173.195936555496	14
6	25104	173.196350555496	120
6	25153	173.372061015904	14
6	25164	173.372555015904	120
6	25227	174.19593658256	14
6	25238	174.19635058256	120
6	25288	174.372061044561	14
6	25299	174.372415044561	120
6	25362	175.195936612233	14
6	25373	175.196370612233	120
6	25422	175.372061073706	14
6	25433	175.372515073706	120
6	25496	176.195936641687	14
6	25507	176.196430641687	120
6	25556	176.372061103287	14
6	25567	176.372495103287	120
6	25630	177.195936654242	14
6	25641	177.196310654242	120
6	25691	177.372061113002	14
6	25702	177.372475113002	120
6	25764	178.19593666883	14
6	25775	178.19639066883	120
6	25825	178.372061127818	14
6	25836	178.372435127818	120
6	25898	179.195936685443	14
6	25910	179.196290685443	120
6	25959	179.37206114581	14
6	25970	179.37241514581	120
6	26033	180.195936725293	14
6	26045	180.196310725293	120
6	26093	180.372061189508	14
6	26104	180.372535189508	120
6	26167	181.195936770725	14
6	26179	181.196290770725	120
6	26227	181.372061235234	14
6	26238	181.372455235234	120
6	26302	182.195936766833	14
6	26313	182.196330766833	120
6	26363	182.372061219445	14
6	26374	182.372555219445	120
6	26437	183.195936757287	14
6	26448	183.196430757287	120
6	26498	183.37206121954	14
6	26509	183.37241521954	120
6	26571	184.195936767759	14
6	26582	184.196430767759	120
6	26632	184.372061224364	14
6	26643	184.372475224364	120
6	26707	185.195936780806	14
6	26718	185.196350780806	120
6	26768	185.372061244541	14
6	26779	185.372495244541	120
6	26841	186.195936827009	14
6	26852	186.196330827009	120
6	26902	186.372061293184	14
6	26913	186.372435293184	120
6	29930	203.195936703115	14
6	29941	203.196350703115	120
6	29990	203.372061127096	14
6	30001	203.372415127096	120
6	30065	204.195936546813	14
6	30076	204.196350546813	120
6	30124	204.372060979241	14
6	30135	204.372474979241	120
6	30200	205.195936442064	14
6	30211	205.196310442064	120
6	30259	205.372060888555	14
6	30270	205.372474888555	120
6	30334	206.1959364077	14
6	30345	206.1963504077	120
6	30393	206.37206086381	14
6	30404	206.37241486381	120
6	30468	207.195936439537	14
6	30479	207.196430439537	120
6	30529	207.372060905943	14
6	30540	207.372454905943	120
6	30602	208.195936509338	14
6	30613	208.196310509338	120
6	30663	208.372060980703	14
6	30674	208.372514980703	120
6	30737	209.195936605743	14
6	30748	209.196290605743	120
6	30797	209.372061082586	14
6	30808	209.372415082586	120
6	30872	210.195936714627	14
6	30883	210.196370714627	120
6	30931	210.372061188879	14
6	30942	210.372475188879	120
6	31006	211.195936818907	14
6	31017	211.196310818907	120
6	31066	211.37206129378	14
6	31077	211.37245529378	120
7	786	21.195304819246	64
7	825	21.197120439076	120
7	889	21.372051248636	120
7	963	22.195926720572	120
7	1024	22.372051170456	120
7	1098	23.195926681781	120
7	1159	23.372051129834	120
7	1232	24.195926650271	120
7	1293	24.372051103896	120
7	1367	25.195926608382	120
7	1427	25.372051059046	120
7	1502	26.195926614866	120
7	1561	26.372051079493	120
7	1636	27.195926644349	120
7	1695	27.372051096643	120
7	1770	28.195926622051	120
7	1830	28.372051074343	120
7	1904	29.195926610392	120
7	1965	29.372051065858	120
7	2038	30.195926605624	120
7	2100	30.372051059898	120
7	2174	31.195926608905	120
7	2235	31.37205106846	120
7	2308	32.19592662732	120
7	2369	32.372051086941	120
7	2444	33.195926651554	120
7	2505	33.372051115054	120
7	2578	34.195926694918	120
7	2639	34.372051151226	120
7	2712	35.195926636733	120
7	2773	35.372051093653	120
7	2847	36.19592666496	120
7	2907	36.372051133793	120
7	2981	37.195926747008	120
7	3041	37.372051220278	120
7	3116	38.195926823005	120
7	6414	56.195926790121	120
7	6474	56.372051229513	120
7	6548	57.195926703792	120
7	6608	57.372051147721	120
7	6683	58.195926634566	120
7	6744	58.37205108101	120
7	6817	59.195926601763	120
7	6878	59.372051054551	120
7	6952	60.195926588472	120
7	7012	60.372051047147	120
7	7087	61.195926611244	120
7	7147	61.372051073268	120
7	7221	62.195926645687	120
7	7282	62.37205111045	120
7	7355	63.195926698699	120
7	7416	63.372051170355	120
7	7489	64.195926782699	120
7	7550	64.372051243208	120
7	7623	65.195926806378	120
7	7684	65.372051266888	120
7	7757	66.195926830068	120
7	7818	66.372051288362	120
7	7892	67.195926824699	120
7	7953	67.372051279382	120
7	8027	68.195926814575	120
7	8087	68.372051268829	120
7	8162	69.195926811018	120
7	8221	69.372051270967	120
7	12069	90.37205127479	120
7	12144	91.195926729982	120
7	12203	91.372051172228	120
7	12278	92.195926658325	120
7	12337	92.372051115338	120
7	12412	93.195926679965	120
7	12472	93.372051147968	120
7	12546	94.195926760675	120
7	12607	94.372051244338	120
7	17194	119.372051289212	120
7	17269	120.195926812293	120
7	17329	120.372051268469	120
7	17403	121.195926812663	120
7	17464	121.372051269898	120
7	17538	122.195926821811	120
7	17599	122.372051291459	120
7	21238	145.371429231182	64
7	21281	145.373124762193	120
7	21306	145.374242292697	120
7	21354	145.376355822517	120
7	21462	146.195926638158	120
7	21523	146.37205106625	120
7	21596	147.195926478867	120
7	21658	147.372050903877	120
7	21731	148.195926355383	120
7	21792	148.372050793592	120
7	21866	149.195926277815	120
7	21926	149.372050723312	120
7	22001	150.195926216344	120
7	22061	150.372050662051	120
7	22136	151.195926149268	120
7	22196	151.372050591967	120
7	22270	152.195926072021	120
7	22330	152.372050514884	120
7	22404	153.195926024203	120
7	22464	153.372050489621	120
7	22539	154.195926094019	120
7	22599	154.372050567489	120
7	22673	155.195926167457	120
7	22734	155.372050635787	120
7	22807	156.195926233907	120
7	22868	156.372050700833	120
7	22941	157.195926280544	120
7	23002	157.372050742405	120
7	23075	158.195926284002	120
7	23136	158.372050742288	120
7	23210	159.195926297924	120
7	23271	159.372050751842	120
7	23344	160.195926287996	120
7	23405	160.372050743981	120
7	23479	161.195926301722	120
7	23540	161.372050762199	120
7	23613	162.195926282494	120
7	23674	162.372050733513	120
7	23748	163.19592624364	120
7	23808	163.372050687273	120
7	23883	164.195926160942	120
7	23943	164.372050602888	120
7	24017	165.195926106895	120
7	24078	165.372050569849	120
7	24152	166.195926196011	120
7	24212	166.372050676327	120
7	24286	167.195926348277	120
7	24346	167.372050833778	120
7	24420	168.195926473339	120
7	24481	168.37205095513	120
7	24555	169.195926527869	120
7	24615	169.372050985802	120
7	24689	170.195926540629	120
7	24750	170.37205100009	120
7	24823	171.195926538052	120
7	24884	171.372050993764	120
7	24957	172.195926538814	120
7	25018	172.372050996796	120
7	25092	173.195926555496	120
7	25152	173.372051015904	120
7	25226	174.19592658256	120
7	25287	174.372051044561	120
7	25361	175.195926612233	120
7	25421	175.372051073706	120
7	25495	176.195926641687	120
7	25555	176.372051103287	120
7	25629	177.195926654242	120
7	25690	177.372051113002	120
7	25763	178.19592666883	120
7	25824	178.372051127818	120
7	25897	179.195926685443	120
7	25958	179.37205114581	120
7	26032	180.195926725293	120
7	26092	180.372051189508	120
7	26166	181.195926770725	120
7	26226	181.372051235234	120
7	26301	182.195926766833	120
7	26362	182.372051219445	120
7	26436	183.195926757287	120
7	26497	183.37205121954	120
7	26570	184.195926767759	120
7	26631	184.372051224364	120
7	26706	185.195926780806	120
7	26767	185.372051244541	120
7	26840	186.195926827009	120
7	26901	186.372051293184	120
7	29929	203.195926703115	120
7	29989	203.372051127096	120
7	30064	204.195926546813	120
7	30123	204.372050979241	120
7	30199	205.195926442064	120
7	30258	205.372050888555	120
7	30333	206.1959264077	120
7	30392	206.37205086381	120
7	30467	207.195926439537	120
7	30528	207.372050905943	120
7	30601	208.195926509338	120
7	30662	208.372050980703	120
7	30736	209.195926605743	120
7	30796	209.372051082586	120
7	30871	210.195926714627	120
7	30930	210.372051188879	120
7	31005	211.195926818907	120
7	31065	211.37205129378	120
8	780	21.195304819246	64
8	810	21.196258439155	14
8	819	21.197120439076	120
8	858	21.198592058277	14
8	883	21.372051248636	120
8	922	21.373422814519	14
8	957	22.195926720572	120
8	996	22.197298143178	14
8	1018	22.372051170456	120
8	1057	22.373402580158	14
8	1092	23.195926681781	120
8	1131	23.19735802677	14
8	1153	23.372051129834	120
8	1192	23.373402458262	14
8	1226	24.195926650271	120
8	1265	24.197377932332	14
8	1287	24.372051103896	120
8	1326	24.373542380532	14
8	1361	25.195926608382	120
8	1400	25.197277806611	14
8	1421	25.372051059046	120
8	1460	25.373462245947	14
8	1496	26.195926614866	120
8	1535	26.197297826287	14
8	1555	26.372051079493	120
8	1594	26.373502307513	14
8	1630	27.195926644349	120
8	1669	27.197337914547	14
8	1689	27.372051096643	120
8	1729	27.373542358747	14
8	1764	28.195926622051	120
8	1803	28.19729784766	14
8	1824	28.372051074343	120
8	1864	28.373422291845	14
8	1898	29.195926610392	120
8	1937	29.197277812727	14
8	1959	29.372051065858	120
8	1998	29.373442266449	14
8	2032	30.195926605624	120
8	2071	30.197417798423	14
8	2094	30.372051059898	120
8	2133	30.373522248468	14
8	2168	31.195926608905	120
8	2207	31.197317808332	14
8	2229	31.37205106846	120
8	2268	31.37348227432	14
8	2302	32.19592662732	120
8	2341	32.197277863577	14
8	2363	32.372051086941	120
8	2402	32.373482329764	14
8	2438	33.195926651554	120
8	2477	33.197377936347	14
8	2499	33.372051115054	120
8	2538	33.373402414164	14
8	2572	34.195926694918	120
8	2611	34.19729806645	14
8	2633	34.372051151226	120
8	2672	34.373482522378	14
8	2706	35.195926636733	120
8	2745	35.197317891557	14
8	2767	35.372051093653	120
8	2806	35.373542349879	14
8	2841	36.19592666496	120
8	2880	36.197297976637	14
8	2901	36.372051133793	120
8	2940	36.37354247049	14
8	2975	37.195926747008	120
8	3014	37.197298222853	14
8	3035	37.372051220278	120
8	3074	37.373522730015	14
8	3110	38.195926823005	120
8	3149	38.197338450851	14
8	6408	56.195926790121	120
8	6447	56.197358351642	14
8	6468	56.372051229513	120
8	6507	56.373442757159	14
8	6542	57.195926703792	120
8	6581	57.197298092738	14
8	6602	57.372051147721	120
8	6641	57.373402511863	14
8	6677	58.195926634566	120
8	6716	58.197357885076	14
8	6738	58.37205108101	120
8	6777	58.373462311819	14
8	6811	59.195926601763	120
8	6850	59.19737778679	14
8	6872	59.372051054551	120
8	6911	59.373502232485	14
8	6946	60.195926588472	120
8	6985	60.197277747017	14
8	7006	60.372051047147	120
8	7045	60.373402210366	14
8	7081	61.195926611244	120
8	7120	61.197297815388	14
8	7141	61.372051073268	120
8	7180	61.373402288782	14
8	7215	62.195926645687	120
8	7254	62.197277918755	14
8	7276	62.37205111045	120
8	7315	62.373402400373	14
8	7349	63.195926698699	120
8	7388	63.197358077834	14
8	7410	63.372051170355	120
8	7449	63.373422580204	14
8	7483	64.195926782699	120
8	7522	64.197418329735	14
8	7544	64.372051243208	120
8	7583	64.37346279858	14
8	7617	65.195926806378	120
8	7656	65.19739840077	14
8	7678	65.372051266888	120
8	7717	65.373422869619	14
8	7751	66.195926830068	120
8	7790	66.197318471837	14
8	7812	66.372051288362	120
8	7851	66.373502933948	14
8	7886	67.195926824699	120
8	7925	67.197378455636	14
8	7947	67.372051279382	120
8	7986	67.373502907006	14
8	8021	68.195926814575	120
8	8060	68.197358425256	14
8	8081	68.372051268829	120
8	8120	68.373502875341	14
8	8156	69.195926811018	120
8	8195	69.197318414677	14
8	8215	69.372051270967	120
8	8254	69.37346288185	14
8	12063	90.37205127479	120
8	12102	90.373462892839	14
8	12138	91.195926729982	120
8	12177	91.197278171288	14
8	12197	91.372051172228	120
8	12236	91.373462585346	14
8	12272	92.195926658325	120
8	12311	92.19729795655	14
8	12331	92.372051115338	120
8	12371	92.373462414913	14
8	12406	93.195926679965	120
8	12445	93.19733802165	14
8	12466	93.372051147968	120
8	12506	93.373402512978	14
8	12540	94.195926760675	120
8	12579	94.197318264025	14
8	12601	94.372051244338	120
8	12640	94.373402802335	14
8	17188	119.372051289212	120
8	17227	119.373442936414	14
8	17263	120.195926812293	120
8	17302	120.197378418442	14
8	17323	120.372051268469	120
8	17362	120.373522874293	14
8	17397	121.195926812663	120
8	17436	121.197338419568	14
8	17458	121.372051269898	120
8	17497	121.373502878598	14
8	17532	122.195926821811	120
8	17571	122.197318447046	14
8	17593	122.372051291459	120
8	17632	122.373462943498	14
8	21232	145.371429231182	64
8	21266	145.372342762271	14
8	21275	145.373124762193	120
8	21300	145.374242292697	120
8	21339	145.375613822588	14
8	21348	145.376355822517	120
8	21387	145.377747351598	14
8	21410	145.37890488024	14
8	21456	146.195926638158	120
8	21495	146.197317895584	14
8	21517	146.37205106625	120
8	21556	146.373482267171	14
8	21590	147.195926478867	120
8	21629	147.19731741772	14
8	21652	147.372050903877	120
8	21691	147.373421780191	14
8	21725	148.195926355383	120
8	21764	148.197297047423	14
8	21786	148.372050793592	120
8	21825	148.373501449367	14
8	21860	149.195926277815	120
8	21899	149.19735681483	14
8	21920	149.372050723312	120
8	21960	149.373541238638	14
8	21995	150.195926216344	120
8	22034	150.19733663042	14
8	22055	150.372050662051	120
8	22095	150.373421054878	14
8	22130	151.195926149268	120
8	22169	151.197336429148	14
8	22190	151.372050591967	120
8	22229	151.373460844566	14
8	22264	152.195926072021	120
8	22303	152.197296197415	14
8	22324	152.372050514884	120
8	22363	152.37354061331	14
8	22398	153.195926024203	120
8	22437	153.197396054307	14
8	22458	153.372050489621	120
8	22498	153.373400537907	14
8	22533	154.195926094019	120
8	22572	154.197396263913	14
8	22593	154.372050567489	120
8	22633	154.373400771626	14
8	22667	155.195926167457	120
8	22706	155.197316484105	14
8	22728	155.372050635787	120
8	22767	155.373440976447	14
8	22801	156.195926233907	120
8	22840	156.197316683458	14
8	22862	156.372050700833	120
8	22901	156.373441171558	14
8	22935	157.195926280544	120
8	22974	157.197296823283	14
8	22996	157.372050742405	120
8	23035	157.373541296199	14
8	23069	158.195926284002	120
8	23108	158.197336833596	14
8	23130	158.372050742288	120
8	23169	158.373541295795	14
8	23204	159.195926297924	120
8	23243	159.197416875384	14
8	23265	159.372050751842	120
8	23304	159.37352132437	14
8	23338	160.195926287996	120
8	23377	160.197336845546	14
8	23399	160.372050743981	120
8	23438	160.373541300829	14
8	23473	161.195926301722	120
8	23512	161.197336886798	14
8	23534	161.372050762199	120
8	23573	161.373501355555	14
8	23607	162.195926282494	120
8	23646	162.197416828957	14
8	23668	162.372050733513	120
8	23707	162.373461269341	14
8	23742	163.19592624364	120
8	23781	163.197276712287	14
8	23802	163.372050687273	120
8	23841	163.373501130494	14
8	23877	164.195926160942	120
8	23916	164.197396464136	14
8	23937	164.372050602888	120
8	23976	164.373500877323	14
8	24011	165.195926106895	120
8	24050	165.197336302286	14
8	24072	165.372050569849	120
8	24111	165.373440778609	14
8	24146	166.195926196011	120
8	24185	166.197356569979	14
8	24206	166.372050676327	120
8	24246	166.373501098288	14
8	24280	167.195926348277	120
8	24319	167.197377026883	14
8	24340	167.372050833778	120
8	24379	167.3734615707	14
8	24414	168.195926473339	120
8	24453	168.197337401999	14
8	24475	168.37205095513	120
8	24514	168.373481934699	14
8	24549	169.195926527869	120
8	24588	169.197417565201	14
8	24609	169.372050985802	120
8	24648	169.37346202632	14
8	24683	170.195926540629	120
8	24722	170.197317603536	14
8	24744	170.37205100009	120
8	24783	170.373482069136	14
8	24817	171.195926538052	120
8	24856	171.197377595708	14
8	24878	171.372050993764	120
8	24917	171.373422050175	14
8	24951	172.195926538814	120
8	24990	172.197317598015	14
8	25012	172.372050996796	120
8	25051	172.373482059325	14
8	25086	173.195926555496	120
8	25125	173.197337648117	14
8	25146	173.372051015904	120
8	25185	173.373542116674	14
8	25220	174.19592658256	120
8	25259	174.197337729336	14
8	25281	174.372051044561	120
8	25320	174.373402202656	14
8	25355	175.195926612233	120
8	25394	175.197357818351	14
8	25415	175.372051073706	120
8	25454	175.373502290094	14
8	25489	176.195926641687	120
8	25528	176.197417906719	14
8	25549	176.372051103287	120
8	25588	176.373482378836	14
8	25623	177.195926654242	120
8	25662	177.197297944316	14
8	25684	177.372051113002	120
8	25723	177.373462407934	14
8	25757	178.19592666883	120
8	25796	178.1973779881	14
8	25818	178.372051127818	120
8	25857	178.373422452385	14
8	25891	179.195926685443	120
8	25931	179.197278037957	14
8	25952	179.37205114581	120
8	25991	179.373402506382	14
8	26026	180.195926725293	120
8	26066	180.19729815757	14
8	26086	180.372051189508	120
8	26125	180.373522637547	14
8	26160	181.195926770725	120
8	26200	181.197278293868	14
8	26220	181.372051235234	120
8	26259	181.373442774722	14
8	26295	182.195926766833	120
8	26334	182.197318282003	14
8	26356	182.372051219445	120
8	26395	182.373542727161	14
8	26430	183.195926757287	120
8	26469	183.197418253528	14
8	26491	183.37205121954	120
8	26530	183.373402727603	14
8	26564	184.195926767759	120
8	26603	184.197418284845	14
8	26625	184.372051224364	120
8	26664	184.373462741987	14
8	26700	185.195926780806	120
8	26739	185.197338324102	14
8	26761	185.372051244541	120
8	26800	185.373482802636	14
8	26834	186.195926827009	120
8	26873	186.197318462738	14
8	26895	186.372051293184	120
8	26934	186.373422948734	14
8	29923	203.195926703115	120
8	29962	203.197338090381	14
8	29983	203.372051127096	120
8	30022	203.37340244967	14
8	30058	204.195926546813	120
8	30097	204.197337621607	14
8	30117	204.372050979241	120
8	30156	204.373462006226	14
8	30193	205.195926442064	120
8	30232	205.197297307589	14
8	30252	205.372050888555	120
8	30291	205.373461734404	14
8	30327	206.1959264077	120
8	30366	206.197337204647	14
8	30386	206.37205086381	120
8	30425	206.373401660328	14
8	30461	207.195926439537	120
8	30500	207.197417300342	14
8	30522	207.372050905943	120
8	30561	207.373441786888	14
8	30595	208.195926509338	120
8	30634	208.197297509813	14
8	30656	208.372050980703	120
8	30695	208.373502011255	14
8	30730	209.195926605743	120
8	30769	209.197277799114	14
8	30790	209.372051082586	120
8	30829	209.373402316968	14
8	30865	210.195926714627	120
8	30904	210.197358125744	14
8	30924	210.372051188879	120
8	30963	210.373462635818	14
8	30999	211.195926818907	120
8	31038	211.197298438581	14
8	31059	211.37205129378	120
8	31098	211.373442950526	14
9	0	0	0
9	0	0	2
9	789	21.195494819246	3
9	793	21.195942819246	2
9	827	21.197130439076	3
9	833	21.197434439076	2
9	838	21.197604439076	3
9	842	21.198276439076	2
9	891	21.372061248636	3
9	897	21.372365248636	2
9	902	21.372435248636	3
9	906	21.373107248636	2
9	965	22.195936720572	3
9	971	22.196240720572	2
9	976	22.196310720572	3
9	980	22.196982720572	2
9	1026	22.372061170456	3
9	1032	22.372365170456	2
9	1037	22.372415170456	3
9	1041	22.373087170456	2
9	1100	23.195936681781	3
9	1106	23.196240681781	2
9	1111	23.196370681781	3
9	1115	23.197042681781	2
9	1161	23.372061129834	3
9	1167	23.372365129834	2
9	1172	23.372415129834	3
9	1176	23.373087129834	2
9	1234	24.195936650271	3
9	1240	24.196240650271	2
9	1245	24.196390650271	3
9	1249	24.197062650271	2
9	1295	24.372061103896	3
9	1301	24.372365103896	2
9	1306	24.372555103896	3
9	1310	24.373227103896	2
9	1369	25.195936608382	3
9	1375	25.196240608382	2
9	1380	25.196290608382	3
9	1384	25.196962608382	2
9	1429	25.372061059046	3
9	1435	25.372365059046	2
9	1440	25.372475059046	3
9	1444	25.373147059046	2
9	1504	26.195936614866	3
9	1510	26.196240614866	2
9	1515	26.196310614866	3
9	1519	26.196982614866	2
9	1563	26.372061079493	3
9	1569	26.372365079493	2
9	1574	26.372515079493	3
9	1578	26.373187079493	2
9	1638	27.195936644349	3
9	1644	27.196240644349	2
9	1649	27.196350644349	3
9	1653	27.197022644349	2
9	1697	27.372061096643	3
9	1703	27.372365096643	2
9	1708	27.372555096643	3
9	1713	27.373227096643	2
9	1772	28.195936622051	3
9	1778	28.196240622051	2
9	1783	28.196310622051	3
9	1787	28.196982622051	2
9	1832	28.372061074343	3
9	1838	28.372365074343	2
9	1843	28.372435074343	3
9	1848	28.373107074343	2
9	1906	29.195936610392	3
9	1912	29.196240610392	2
9	1917	29.196290610392	3
9	1921	29.196962610392	2
9	1967	29.372061065858	3
9	1973	29.372365065858	2
9	1978	29.372455065858	3
9	1982	29.373127065858	2
9	2040	30.195936605624	3
9	2046	30.196240605624	2
9	2051	30.196430605624	3
9	2055	30.197102605624	2
9	2102	30.372061059898	3
9	2108	30.372365059898	2
9	2113	30.372535059898	3
9	2117	30.373207059898	2
9	2176	31.195936608905	3
9	2182	31.196240608905	2
9	2187	31.196330608905	3
9	2191	31.197002608905	2
9	2237	31.37206106846	3
9	2243	31.37236506846	2
9	2248	31.37249506846	3
9	2252	31.37316706846	2
9	2310	32.19593662732	3
9	2316	32.19624062732	2
9	2321	32.19629062732	3
9	2325	32.19696262732	2
9	2371	32.372061086941	3
9	2377	32.372365086941	2
9	2382	32.372495086941	3
9	2386	32.373167086941	2
9	2446	33.195936651554	3
9	2452	33.196240651554	2
9	2457	33.196390651554	3
9	2461	33.197062651554	2
9	2507	33.372061115054	3
9	2513	33.372365115054	2
9	2518	33.372415115054	3
9	2522	33.373087115054	2
9	2580	34.195936694918	3
9	2586	34.196240694918	2
9	2591	34.196310694918	3
9	2595	34.196982694918	2
9	2641	34.372061151226	3
9	2647	34.372365151226	2
9	2652	34.372495151226	3
9	2656	34.373167151226	2
9	2714	35.195936636733	3
9	2720	35.196240636733	2
9	2725	35.196330636733	3
9	2729	35.197002636733	2
9	2775	35.372061093653	3
9	2781	35.372365093653	2
9	2786	35.372555093653	3
9	2790	35.373227093653	2
9	2849	36.19593666496	3
9	2855	36.19624066496	2
9	2860	36.19631066496	3
9	2864	36.19698266496	2
9	2909	36.372061133793	3
9	2915	36.372365133793	2
9	2920	36.372555133793	3
9	2924	36.373227133793	2
9	2983	37.195936747008	3
9	2989	37.196240747008	2
9	2994	37.196310747008	3
9	2998	37.196982747008	2
9	3043	37.372061220278	3
9	3049	37.372365220278	2
9	3054	37.372535220278	3
9	3058	37.373207220278	2
9	3118	38.195936823005	3
9	3124	38.196240823005	2
9	3129	38.196350823005	3
9	3133	38.197022823005	2
9	6416	56.195936790121	3
9	6422	56.196240790121	2
9	6427	56.196370790121	3
9	6431	56.197042790121	2
9	6476	56.372061229513	3
9	6482	56.372365229513	2
9	6487	56.372455229513	3
9	6491	56.373127229513	2
9	6550	57.195936703792	3
9	6556	57.196240703792	2
9	6561	57.196310703792	3
9	6565	57.196982703792	2
9	6610	57.372061147721	3
9	6616	57.372365147721	2
9	6621	57.372415147721	3
9	6625	57.373087147721	2
9	6685	58.195936634566	3
9	6691	58.196240634566	2
9	6696	58.196370634566	3
9	6700	58.197042634566	2
9	6746	58.37206108101	3
9	6752	58.37236508101	2
9	6757	58.37247508101	3
9	6761	58.37314708101	2
9	6819	59.195936601763	3
9	6825	59.196240601763	2
9	6830	59.196390601763	3
9	6834	59.197062601763	2
9	6880	59.372061054551	3
9	6886	59.372365054551	2
9	6891	59.372515054551	3
9	6895	59.373187054551	2
9	6954	60.195936588472	3
9	6960	60.196240588472	2
9	6965	60.196290588472	3
9	6969	60.196962588472	2
9	7014	60.372061047147	3
9	7020	60.372365047147	2
9	7025	60.372415047147	3
9	7029	60.373087047147	2
9	7089	61.195936611244	3
9	7095	61.196240611244	2
9	7100	61.196310611244	3
9	7104	61.196982611244	2
9	7149	61.372061073268	3
9	7155	61.372365073268	2
9	7160	61.372415073268	3
9	7164	61.373087073268	2
9	7223	62.195936645687	3
9	7229	62.196240645687	2
9	7234	62.196290645687	3
9	7238	62.196962645687	2
9	7284	62.37206111045	3
9	7290	62.37236511045	2
9	7295	62.37241511045	3
9	7299	62.37308711045	2
9	7357	63.195936698699	3
9	7363	63.196240698699	2
9	7368	63.196370698699	3
9	7372	63.197042698699	2
9	7418	63.372061170355	3
9	7424	63.372365170355	2
9	7429	63.372435170355	3
9	7433	63.373107170355	2
9	7491	64.195936782699	3
9	7497	64.196240782699	2
9	7502	64.196430782699	3
9	7506	64.197102782699	2
9	7552	64.372061243208	3
9	7558	64.372365243208	2
9	7563	64.372475243208	3
9	7567	64.373147243208	2
9	7625	65.195936806378	3
9	7631	65.196240806378	2
9	7636	65.196410806378	3
9	7640	65.197082806378	2
9	7686	65.372061266888	3
9	7692	65.372365266888	2
9	7697	65.372435266888	3
9	7701	65.373107266888	2
9	7759	66.195936830068	3
9	7765	66.196240830068	2
9	7770	66.196330830068	3
9	7774	66.197002830068	2
9	7820	66.372061288362	3
9	7826	66.372365288362	2
9	7831	66.372515288362	3
9	7835	66.373187288362	2
9	7894	67.195936824699	3
9	7900	67.196240824699	2
9	7905	67.196390824699	3
9	7909	67.197062824699	2
9	7955	67.372061279382	3
9	7961	67.372365279382	2
9	7966	67.372515279382	3
9	7970	67.373187279382	2
9	8029	68.195936814575	3
9	8035	68.196240814575	2
9	8040	68.196370814575	3
9	8044	68.197042814575	2
9	8089	68.372061268829	3
9	8095	68.372365268829	2
9	8100	68.372515268829	3
9	8104	68.373187268829	2
9	8164	69.195936811018	3
9	8170	69.196240811018	2
9	8175	69.196330811018	3
9	8179	69.197002811018	2
9	8223	69.372061270967	3
9	8229	69.372365270967	2
9	8234	69.372475270967	3
9	8238	69.373147270967	2
9	12071	90.37206127479	3
9	12077	90.37236527479	2
9	12082	90.37247527479	3
9	12086	90.37314727479	2
9	12146	91.195936729982	3
9	12152	91.196240729982	2
9	12157	91.196290729982	3
9	12161	91.196962729982	2
9	12205	91.372061172228	3
9	12211	91.372365172228	2
9	12216	91.372475172228	3
9	12220	91.373147172228	2
9	12280	92.195936658325	3
9	12286	92.196240658325	2
9	12291	92.196310658325	3
9	12295	92.196982658325	2
9	12339	92.372061115338	3
9	12345	92.372365115338	2
9	12350	92.372475115338	3
9	12355	92.373147115338	2
9	12414	93.195936679965	3
9	12420	93.196240679965	2
9	12425	93.196350679965	3
9	12429	93.197022679965	2
9	12474	93.372061147968	3
9	12480	93.372365147968	2
9	12485	93.372415147968	3
9	12490	93.373087147968	2
9	12548	94.195936760675	3
9	12554	94.196240760675	2
9	12559	94.196330760675	3
9	12563	94.197002760675	2
9	12609	94.372061244338	3
9	12615	94.372365244338	2
9	12620	94.372415244338	3
9	12624	94.373087244338	2
9	17196	119.372061289212	3
9	17202	119.372365289212	2
9	17207	119.372455289212	3
9	17211	119.373127289212	2
9	17271	120.195936812293	3
9	17277	120.196240812293	2
9	17282	120.196390812293	3
9	17286	120.197062812293	2
9	17331	120.372061268469	3
9	17337	120.372365268469	2
9	17342	120.372535268469	3
9	17346	120.373207268469	2
9	17405	121.195936812663	3
9	17411	121.196240812663	2
9	17416	121.196350812663	3
9	17420	121.197022812663	2
9	17466	121.372061269898	3
9	17472	121.372365269898	2
9	17477	121.372515269898	3
9	17481	121.373187269898	2
9	17540	122.195936821811	3
9	17546	122.196240821811	2
9	17551	122.196330821811	3
9	17555	122.197002821811	2
9	17601	122.372061291459	3
9	17607	122.372365291459	2
9	17612	122.372475291459	3
9	17616	122.373147291459	2
9	21241	145.371579231182	3
9	21245	145.372027231182	2
9	21283	145.373134762193	3
9	21289	145.373438762193	2
9	21308	145.374252292697	3
9	21314	145.374556292697	2
9	21319	145.374626292697	3
9	21323	145.375298292697	2
9	21356	145.376365822517	3
9	21362	145.376669822517	2
9	21367	145.376759822517	3
9	21371	145.377431822517	2
9	21390	145.377917351598	3
9	21394	145.378589351598	2
9	21464	146.195936638158	3
9	21470	146.196240638158	2
9	21475	146.196330638158	3
9	21479	146.197002638158	2
9	21525	146.37206106625	3
9	21531	146.37236506625	2
9	21536	146.37249506625	3
9	21540	146.37316706625	2
9	21598	147.195936478867	3
9	21604	147.196240478867	2
9	21609	147.196330478867	3
9	21613	147.197002478867	2
9	21660	147.372060903877	3
9	21666	147.372364903877	2
9	21671	147.372434903877	3
9	21675	147.373106903877	2
9	21733	148.195936355383	3
9	21739	148.196240355383	2
9	21744	148.196310355383	3
9	21748	148.196982355383	2
9	21794	148.372060793592	3
9	21800	148.372364793592	2
9	21805	148.372514793592	3
9	21809	148.373186793592	2
9	21868	149.195936277815	3
9	21874	149.196240277815	2
9	21879	149.196370277815	3
9	21883	149.197042277815	2
9	21928	149.372060723312	3
9	21935	149.372364723312	2
9	21940	149.372554723312	3
9	21944	149.373226723312	2
9	22003	150.195936216344	3
9	22009	150.196240216344	2
9	22014	150.196350216344	3
9	22018	150.197022216344	2
9	22063	150.372060662051	3
9	22070	150.372364662051	2
9	22075	150.372434662051	3
9	22079	150.373106662051	2
9	22138	151.195936149268	3
9	22144	151.196240149268	2
9	22149	151.196350149268	3
9	22153	151.197022149268	2
9	22198	151.372060591967	3
9	22204	151.372364591967	2
9	22209	151.372474591967	3
9	22213	151.373146591967	2
9	22272	152.195936072021	3
9	22278	152.196240072021	2
9	22283	152.196310072021	3
9	22287	152.196982072021	2
9	22332	152.372060514884	3
9	22338	152.372364514884	2
9	22343	152.372554514884	3
9	22347	152.373226514884	2
9	22406	153.195936024203	3
9	22412	153.196240024203	2
9	22417	153.196410024203	3
9	22421	153.197082024203	2
9	22466	153.372060489621	3
9	22472	153.372364489621	2
9	22477	153.372414489621	3
9	22481	153.373086489621	2
9	22541	154.195936094019	3
9	22547	154.196240094019	2
9	22552	154.196410094019	3
9	22556	154.197082094019	2
9	22601	154.372060567489	3
9	22607	154.372364567489	2
9	22612	154.372414567489	3
9	22616	154.373086567489	2
9	22675	155.195936167457	3
9	22681	155.196240167457	2
9	22686	155.196330167457	3
9	22690	155.197002167457	2
9	22736	155.372060635787	3
9	22742	155.372364635787	2
9	22747	155.372454635787	3
9	22751	155.373126635787	2
9	22809	156.195936233907	3
9	22815	156.196240233907	2
9	22820	156.196330233907	3
9	22824	156.197002233907	2
9	22870	156.372060700833	3
9	22876	156.372364700833	2
9	22881	156.372454700833	3
9	22885	156.373126700833	2
9	22943	157.195936280544	3
9	22949	157.196240280544	2
9	22954	157.196310280544	3
9	22958	157.196982280544	2
9	23004	157.372060742405	3
9	23010	157.372364742405	2
9	23015	157.372554742405	3
9	23019	157.373226742405	2
9	23077	158.195936284002	3
9	23083	158.196240284002	2
9	23088	158.196350284002	3
9	23092	158.197022284002	2
9	23138	158.372060742288	3
9	23144	158.372364742288	2
9	23149	158.372554742288	3
9	23153	158.373226742288	2
9	23212	159.195936297924	3
9	23218	159.196240297924	2
9	23223	159.196430297924	3
9	23227	159.197102297924	2
9	23273	159.372060751842	3
9	23279	159.372364751842	2
9	23284	159.372534751842	3
9	23288	159.373206751842	2
9	23346	160.195936287996	3
9	23352	160.196240287996	2
9	23357	160.196350287996	3
9	23361	160.197022287996	2
9	23407	160.372060743981	3
9	23413	160.372364743981	2
9	23418	160.372554743981	3
9	23422	160.373226743981	2
9	23481	161.195936301722	3
9	23487	161.196240301722	2
9	23492	161.196350301722	3
9	23496	161.197022301722	2
9	23542	161.372060762199	3
9	23548	161.372364762199	2
9	23553	161.372514762199	3
9	23557	161.373186762199	2
9	23615	162.195936282494	3
9	23621	162.196240282494	2
9	23626	162.196430282494	3
9	23630	162.197102282494	2
9	23676	162.372060733513	3
9	23682	162.372364733513	2
9	23687	162.372474733513	3
9	23691	162.373146733513	2
9	23750	163.19593624364	3
9	23756	163.19624024364	2
9	23761	163.19629024364	3
9	23765	163.19696224364	2
9	23810	163.372060687273	3
9	23816	163.372364687273	2
9	23821	163.372514687273	3
9	23825	163.373186687273	2
9	23885	164.195936160942	3
9	23891	164.196240160942	2
9	23896	164.196410160942	3
9	23900	164.197082160942	2
9	23945	164.372060602888	3
9	23951	164.372364602888	2
9	23956	164.372514602888	3
9	23960	164.373186602888	2
9	24019	165.195936106895	3
9	24025	165.196240106895	2
9	24030	165.196350106895	3
9	24034	165.197022106895	2
9	24080	165.372060569849	3
9	24086	165.372364569849	2
9	24091	165.372454569849	3
9	24095	165.373126569849	2
9	24154	166.195936196011	3
9	24160	166.196240196011	2
9	24165	166.196370196011	3
9	24169	166.197042196011	2
9	24214	166.372060676327	3
9	24220	166.372364676327	2
9	24225	166.372514676327	3
9	24229	166.373186676327	2
9	24288	167.195936348277	3
9	24294	167.196240348277	2
9	24299	167.196390348277	3
9	24303	167.197062348277	2
9	24348	167.372060833778	3
9	24354	167.372364833778	2
9	24359	167.372474833778	3
9	24363	167.373146833778	2
9	24422	168.195936473339	3
9	24428	168.196240473339	2
9	24433	168.196350473339	3
9	24437	168.197022473339	2
9	24483	168.37206095513	3
9	24489	168.37236495513	2
9	24494	168.37249495513	3
9	24498	168.37316695513	2
9	24557	169.195936527869	3
9	24563	169.196240527869	2
9	24568	169.196430527869	3
9	24572	169.197102527869	2
9	24617	169.372060985802	3
9	24623	169.372364985802	2
9	24628	169.372474985802	3
9	24632	169.373146985802	2
9	24691	170.195936540629	3
9	24697	170.196240540629	2
9	24702	170.196330540629	3
9	24706	170.197002540629	2
9	24752	170.37206100009	3
9	24758	170.37236500009	2
9	24763	170.37249500009	3
9	24767	170.37316700009	2
9	24825	171.195936538052	3
9	24831	171.196240538052	2
9	24836	171.196390538052	3
9	24840	171.197062538052	2
9	24886	171.372060993764	3
9	24892	171.372364993764	2
9	24897	171.372434993764	3
9	24901	171.373106993764	2
9	24959	172.195936538814	3
9	24965	172.196240538814	2
9	24970	172.196330538814	3
9	24974	172.197002538814	2
9	25020	172.372060996796	3
9	25026	172.372364996796	2
9	25031	172.372494996796	3
9	25035	172.373166996796	2
9	25094	173.195936555496	3
9	25100	173.196240555496	2
9	25105	173.196350555496	3
9	25109	173.197022555496	2
9	25154	173.372061015904	3
9	25160	173.372365015904	2
9	25165	173.372555015904	3
9	25169	173.373227015904	2
9	25228	174.19593658256	3
9	25234	174.19624058256	2
9	25239	174.19635058256	3
9	25243	174.19702258256	2
9	25289	174.372061044561	3
9	25295	174.372365044561	2
9	25300	174.372415044561	3
9	25304	174.373087044561	2
9	25363	175.195936612233	3
9	25369	175.196240612233	2
9	25374	175.196370612233	3
9	25378	175.197042612233	2
9	25423	175.372061073706	3
9	25429	175.372365073706	2
9	25434	175.372515073706	3
9	25438	175.373187073706	2
9	25497	176.195936641687	3
9	25503	176.196240641687	2
9	25508	176.196430641687	3
9	25512	176.197102641687	2
9	25557	176.372061103287	3
9	25563	176.372365103287	2
9	25568	176.372495103287	3
9	25572	176.373167103287	2
9	25631	177.195936654242	3
9	25637	177.196240654242	2
9	25642	177.196310654242	3
9	25646	177.196982654242	2
9	25692	177.372061113002	3
9	25698	177.372365113002	2
9	25703	177.372475113002	3
9	25707	177.373147113002	2
9	25765	178.19593666883	3
9	25771	178.19624066883	2
9	25776	178.19639066883	3
9	25780	178.19706266883	2
9	25826	178.372061127818	3
9	25832	178.372365127818	2
9	25837	178.372435127818	3
9	25841	178.373107127818	2
9	25899	179.195936685443	3
9	25906	179.196240685443	2
9	25911	179.196290685443	3
9	25915	179.196962685443	2
9	25960	179.37206114581	3
9	25966	179.37236514581	2
9	25971	179.37241514581	3
9	25975	179.37308714581	2
9	26034	180.195936725293	3
9	26041	180.196240725293	2
9	26046	180.196310725293	3
9	26050	180.196982725293	2
9	26094	180.372061189508	3
9	26100	180.372365189508	2
9	26105	180.372535189508	3
9	26109	180.373207189508	2
9	26168	181.195936770725	3
9	26175	181.196240770725	2
9	26180	181.196290770725	3
9	26184	181.196962770725	2
9	26228	181.372061235234	3
9	26234	181.372365235234	2
9	26239	181.372455235234	3
9	26243	181.373127235234	2
9	26303	182.195936766833	3
9	26309	182.196240766833	2
9	26314	182.196330766833	3
9	26318	182.197002766833	2
9	26364	182.372061219445	3
9	26370	182.372365219445	2
9	26375	182.372555219445	3
9	26379	182.373227219445	2
9	26438	183.195936757287	3
9	26444	183.196240757287	2
9	26449	183.196430757287	3
9	26453	183.197102757287	2
9	26499	183.37206121954	3
9	26505	183.37236521954	2
9	26510	183.37241521954	3
9	26514	183.37308721954	2
9	26572	184.195936767759	3
9	26578	184.196240767759	2
9	26583	184.196430767759	3
9	26587	184.197102767759	2
9	26633	184.372061224364	3
9	26639	184.372365224364	2
9	26644	184.372475224364	3
9	26648	184.373147224364	2
9	26708	185.195936780806	3
9	26714	185.196240780806	2
9	26719	185.196350780806	3
9	26723	185.197022780806	2
9	26769	185.372061244541	3
9	26775	185.372365244541	2
9	26780	185.372495244541	3
9	26784	185.373167244541	2
9	26842	186.195936827009	3
9	26848	186.196240827009	2
9	26853	186.196330827009	3
9	26857	186.197002827009	2
9	26903	186.372061293184	3
9	26909	186.372365293184	2
9	26914	186.372435293184	3
9	26918	186.373107293184	2
9	29931	203.195936703115	3
9	29937	203.196240703115	2
9	29942	203.196350703115	3
9	29946	203.197022703115	2
9	29991	203.372061127096	3
9	29997	203.372365127096	2
9	30002	203.372415127096	3
9	30006	203.373087127096	2
9	30066	204.195936546813	3
9	30072	204.196240546813	2
9	30077	204.196350546813	3
9	30081	204.197022546813	2
9	30125	204.372060979241	3
9	30131	204.372364979241	2
9	30136	204.372474979241	3
9	30140	204.373146979241	2
9	30201	205.195936442064	3
9	30207	205.196240442064	2
9	30212	205.196310442064	3
9	30216	205.196982442064	2
9	30260	205.372060888555	3
9	30266	205.372364888555	2
9	30271	205.372474888555	3
9	30275	205.373146888555	2
9	30335	206.1959364077	3
9	30341	206.1962404077	2
9	30346	206.1963504077	3
9	30350	206.1970224077	2
9	30394	206.37206086381	3
9	30400	206.37236486381	2
9	30405	206.37241486381	3
9	30409	206.37308686381	2
9	30469	207.195936439537	3
9	30475	207.196240439537	2
9	30480	207.196430439537	3
9	30484	207.197102439537	2
9	30530	207.372060905943	3
9	30536	207.372364905943	2
9	30541	207.372454905943	3
9	30545	207.373126905943	2
9	30603	208.195936509338	3
9	30609	208.196240509338	2
9	30614	208.196310509338	3
9	30618	208.196982509338	2
9	30664	208.372060980703	3
9	30670	208.372364980703	2
9	30675	208.372514980703	3
9	30679	208.373186980703	2
9	30738	209.195936605743	3
9	30744	209.196240605743	2
9	30749	209.196290605743	3
9	30753	209.196962605743	2
9	30798	209.372061082586	3
9	30804	209.372365082586	2
9	30809	209.372415082586	3
9	30813	209.373087082586	2
9	30873	210.195936714627	3
9	30879	210.196240714627	2
9	30884	210.196370714627	3
9	30888	210.197042714627	2
9	30932	210.372061188879	3
9	30938	210.372365188879	2
9	30943	210.372475188879	3
9	30947	210.373147188879	2
9	31007	211.195936818907	3
9	31013	211.196240818907	2
9	31018	211.196310818907	3
9	31022	211.196982818907	2
9	31067	211.37206129378	3
9	31073	211.37236529378	2
9	31078	211.37245529378	3
9	31082	211.37312729378	2
10	0	0	1
10	776	21.195254819246	3
10	779	21.195304819246	1
10	789	21.195494819246	0
10	793	21.195942819246	1
10	804	21.195954439155	3
10	809	21.196258439155	1
10	815	21.196448439076	3
10	818	21.197120439076	1
10	827	21.197130439076	0
10	833	21.197434439076	1
10	838	21.197604439076	0
10	842	21.198276439076	1
10	852	21.198288058277	3
10	857	21.198592058277	1
10	879	21.371379248636	3
10	882	21.372051248636	1
10	891	21.372061248636	0
10	897	21.372365248636	1
10	902	21.372435248636	0
10	906	21.373107248636	1
10	916	21.373118814519	3
10	921	21.373422814519	1
10	953	22.195254720572	3
10	956	22.195926720572	1
10	965	22.195936720572	0
10	971	22.196240720572	1
10	976	22.196310720572	0
10	980	22.196982720572	1
10	990	22.196994143178	3
10	995	22.197298143178	1
10	1014	22.371379170456	3
10	1017	22.372051170456	1
10	1026	22.372061170456	0
10	1032	22.372365170456	1
10	1037	22.372415170456	0
10	1041	22.373087170456	1
10	1051	22.373098580158	3
10	1056	22.373402580158	1
10	1088	23.195254681781	3
10	1091	23.195926681781	1
10	1100	23.195936681781	0
10	1106	23.196240681781	1
10	1111	23.196370681781	0
10	1115	23.197042681781	1
10	1125	23.19705402677	3
10	1130	23.19735802677	1
10	1149	23.371379129834	3
10	1152	23.372051129834	1
10	1161	23.372061129834	0
10	1167	23.372365129834	1
10	1172	23.372415129834	0
10	1176	23.373087129834	1
10	1186	23.373098458262	3
10	1191	23.373402458262	1
10	1222	24.195254650271	3
10	1225	24.195926650271	1
10	1234	24.195936650271	0
10	1240	24.196240650271	1
10	1245	24.196390650271	0
10	1249	24.197062650271	1
10	1259	24.197073932332	3
10	1264	24.197377932332	1
10	1283	24.371379103896	3
10	1286	24.372051103896	1
10	1295	24.372061103896	0
10	1301	24.372365103896	1
10	1306	24.372555103896	0
10	1310	24.373227103896	1
10	1320	24.373238380532	3
10	1325	24.373542380532	1
10	1357	25.195254608382	3
10	1360	25.195926608382	1
10	1369	25.195936608382	0
10	1375	25.196240608382	1
10	1380	25.196290608382	0
10	1384	25.196962608382	1
10	1394	25.196973806611	3
10	1399	25.197277806611	1
10	1417	25.371379059046	3
10	1420	25.372051059046	1
10	1429	25.372061059046	0
10	1435	25.372365059046	1
10	1440	25.372475059046	0
10	1444	25.373147059046	1
10	1454	25.373158245947	3
10	1459	25.373462245947	1
10	1492	26.195254614866	3
10	1495	26.195926614866	1
10	1504	26.195936614866	0
10	1510	26.196240614866	1
10	1515	26.196310614866	0
10	1519	26.196982614866	1
10	1529	26.196993826287	3
10	1534	26.197297826287	1
10	1551	26.371379079493	3
10	1554	26.372051079493	1
10	1563	26.372061079493	0
10	1569	26.372365079493	1
10	1574	26.372515079493	0
10	1578	26.373187079493	1
10	1588	26.373198307513	3
10	1593	26.373502307513	1
10	1626	27.195254644349	3
10	1629	27.195926644349	1
10	1638	27.195936644349	0
10	1644	27.196240644349	1
10	1649	27.196350644349	0
10	1653	27.197022644349	1
10	1663	27.197033914547	3
10	1668	27.197337914547	1
10	1685	27.371379096643	3
10	1688	27.372051096643	1
10	1697	27.372061096643	0
10	1703	27.372365096643	1
10	1708	27.372555096643	0
10	1713	27.373227096643	1
10	1723	27.373238358747	3
10	1728	27.373542358747	1
10	1760	28.195254622051	3
10	1763	28.195926622051	1
10	1772	28.195936622051	0
10	1778	28.196240622051	1
10	1783	28.196310622051	0
10	1787	28.196982622051	1
10	1797	28.19699384766	3
10	1802	28.19729784766	1
10	1820	28.371379074343	3
10	1823	28.372051074343	1
10	1832	28.372061074343	0
10	1838	28.372365074343	1
10	1843	28.372435074343	0
10	1848	28.373107074343	1
10	1858	28.373118291845	3
10	1863	28.373422291845	1
10	1894	29.195254610392	3
10	1897	29.195926610392	1
10	1906	29.195936610392	0
10	1912	29.196240610392	1
10	1917	29.196290610392	0
10	1921	29.196962610392	1
10	1931	29.196973812727	3
10	1936	29.197277812727	1
10	1955	29.371379065858	3
10	1958	29.372051065858	1
10	1967	29.372061065858	0
10	1973	29.372365065858	1
10	1978	29.372455065858	0
10	1982	29.373127065858	1
10	1992	29.373138266449	3
10	1997	29.373442266449	1
10	2028	30.195254605624	3
10	2031	30.195926605624	1
10	2040	30.195936605624	0
10	2046	30.196240605624	1
10	2051	30.196430605624	0
10	2055	30.197102605624	1
10	2065	30.197113798423	3
10	2070	30.197417798423	1
10	2090	30.371379059898	3
10	2093	30.372051059898	1
10	2102	30.372061059898	0
10	2108	30.372365059898	1
10	2113	30.372535059898	0
10	2117	30.373207059898	1
10	2127	30.373218248468	3
10	2132	30.373522248468	1
10	2164	31.195254608905	3
10	2167	31.195926608905	1
10	2176	31.195936608905	0
10	2182	31.196240608905	1
10	2187	31.196330608905	0
10	2191	31.197002608905	1
10	2201	31.197013808332	3
10	2206	31.197317808332	1
10	2225	31.37137906846	3
10	2228	31.37205106846	1
10	2237	31.37206106846	0
10	2243	31.37236506846	1
10	2248	31.37249506846	0
10	2252	31.37316706846	1
10	2262	31.37317827432	3
10	2267	31.37348227432	1
10	2298	32.19525462732	3
10	2301	32.19592662732	1
10	2310	32.19593662732	0
10	2316	32.19624062732	1
10	2321	32.19629062732	0
10	2325	32.19696262732	1
10	2335	32.196973863577	3
10	2340	32.197277863577	1
10	2359	32.371379086941	3
10	2362	32.372051086941	1
10	2371	32.372061086941	0
10	2377	32.372365086941	1
10	2382	32.372495086941	0
10	2386	32.373167086941	1
10	2396	32.373178329764	3
10	2401	32.373482329764	1
10	2434	33.195254651554	3
10	2437	33.195926651554	1
10	2446	33.195936651554	0
10	2452	33.196240651554	1
10	2457	33.196390651554	0
10	2461	33.197062651554	1
10	2471	33.197073936347	3
10	2476	33.197377936347	1
10	2495	33.371379115054	3
10	2498	33.372051115054	1
10	2507	33.372061115054	0
10	2513	33.372365115054	1
10	2518	33.372415115054	0
10	2522	33.373087115054	1
10	2532	33.373098414164	3
10	2537	33.373402414164	1
10	2568	34.195254694918	3
10	2571	34.195926694918	1
10	2580	34.195936694918	0
10	2586	34.196240694918	1
10	2591	34.196310694918	0
10	2595	34.196982694918	1
10	2605	34.19699406645	3
10	2610	34.19729806645	1
10	2629	34.371379151226	3
10	2632	34.372051151226	1
10	2641	34.372061151226	0
10	2647	34.372365151226	1
10	2652	34.372495151226	0
10	2656	34.373167151226	1
10	2666	34.373178522378	3
10	2671	34.373482522378	1
10	2702	35.195254636733	3
10	2705	35.195926636733	1
10	2714	35.195936636733	0
10	2720	35.196240636733	1
10	2725	35.196330636733	0
10	2729	35.197002636733	1
10	2739	35.197013891557	3
10	2744	35.197317891557	1
10	2763	35.371379093653	3
10	2766	35.372051093653	1
10	2775	35.372061093653	0
10	2781	35.372365093653	1
10	2786	35.372555093653	0
10	2790	35.373227093653	1
10	2800	35.373238349879	3
10	2805	35.373542349879	1
10	2837	36.19525466496	3
10	2840	36.19592666496	1
10	2849	36.19593666496	0
10	2855	36.19624066496	1
10	2860	36.19631066496	0
10	2864	36.19698266496	1
10	2874	36.196993976637	3
10	2879	36.197297976637	1
10	2897	36.371379133793	3
10	2900	36.372051133793	1
10	2909	36.372061133793	0
10	2915	36.372365133793	1
10	2920	36.372555133793	0
10	2924	36.373227133793	1
10	2934	36.37323847049	3
10	2939	36.37354247049	1
10	2971	37.195254747008	3
10	2974	37.195926747008	1
10	2983	37.195936747008	0
10	2989	37.196240747008	1
10	2994	37.196310747008	0
10	2998	37.196982747008	1
10	3008	37.196994222853	3
10	3013	37.197298222853	1
10	3031	37.371379220278	3
10	3034	37.372051220278	1
10	3043	37.372061220278	0
10	3049	37.372365220278	1
10	3054	37.372535220278	0
10	3058	37.373207220278	1
10	3068	37.373218730015	3
10	3073	37.373522730015	1
10	3106	38.195254823005	3
10	3109	38.195926823005	1
10	3118	38.195936823005	0
10	3124	38.196240823005	1
10	3129	38.196350823005	0
10	3133	38.197022823005	1
10	3143	38.197034450851	3
10	3148	38.197338450851	1
10	3167	38.371379296207	2
10	3170	38.372051296207	1
10	3177	38.372455296312	2
10	3180	38.373127296312	1
10	3187	38.374031296466	2
10	3190	38.374703296466	1
10	3197	38.375067296568	2
10	3200	38.375739296568	1
10	6404	56.195254790121	3
10	6407	56.195926790121	1
10	6416	56.195936790121	0
10	6422	56.196240790121	1
10	6427	56.196370790121	0
10	6431	56.197042790121	1
10	6441	56.197054351642	3
10	6446	56.197358351642	1
10	6464	56.371379229513	3
10	6467	56.372051229513	1
10	6476	56.372061229513	0
10	6482	56.372365229513	1
10	6487	56.372455229513	0
10	6491	56.373127229513	1
10	6501	56.373138757159	3
10	6506	56.373442757159	1
10	6538	57.195254703792	3
10	6541	57.195926703792	1
10	6550	57.195936703792	0
10	6556	57.196240703792	1
10	6561	57.196310703792	0
10	6565	57.196982703792	1
10	6575	57.196994092738	3
10	6580	57.197298092738	1
10	6598	57.371379147721	3
10	6601	57.372051147721	1
10	6610	57.372061147721	0
10	6616	57.372365147721	1
10	6621	57.372415147721	0
10	6625	57.373087147721	1
10	6635	57.373098511863	3
10	6640	57.373402511863	1
10	6673	58.195254634566	3
10	6676	58.195926634566	1
10	6685	58.195936634566	0
10	6691	58.196240634566	1
10	6696	58.196370634566	0
10	6700	58.197042634566	1
10	6710	58.197053885076	3
10	6715	58.197357885076	1
10	6734	58.37137908101	3
10	6737	58.37205108101	1
10	6746	58.37206108101	0
10	6752	58.37236508101	1
10	6757	58.37247508101	0
10	6761	58.37314708101	1
10	6771	58.373158311819	3
10	6776	58.373462311819	1
10	6807	59.195254601763	3
10	6810	59.195926601763	1
10	6819	59.195936601763	0
10	6825	59.196240601763	1
10	6830	59.196390601763	0
10	6834	59.197062601763	1
10	6844	59.19707378679	3
10	6849	59.19737778679	1
10	6868	59.371379054551	3
10	6871	59.372051054551	1
10	6880	59.372061054551	0
10	6886	59.372365054551	1
10	6891	59.372515054551	0
10	6895	59.373187054551	1
10	6905	59.373198232485	3
10	6910	59.373502232485	1
10	6942	60.195254588472	3
10	6945	60.195926588472	1
10	6954	60.195936588472	0
10	6960	60.196240588472	1
10	6965	60.196290588472	0
10	6969	60.196962588472	1
10	6979	60.196973747017	3
10	6984	60.197277747017	1
10	7002	60.371379047147	3
10	7005	60.372051047147	1
10	7014	60.372061047147	0
10	7020	60.372365047147	1
10	7025	60.372415047147	0
10	7029	60.373087047147	1
10	7039	60.373098210366	3
10	7044	60.373402210366	1
10	7077	61.195254611244	3
10	7080	61.195926611244	1
10	7089	61.195936611244	0
10	7095	61.196240611244	1
10	7100	61.196310611244	0
10	7104	61.196982611244	1
10	7114	61.196993815388	3
10	7119	61.197297815388	1
10	7137	61.371379073268	3
10	7140	61.372051073268	1
10	7149	61.372061073268	0
10	7155	61.372365073268	1
10	7160	61.372415073268	0
10	7164	61.373087073268	1
10	7174	61.373098288782	3
10	7179	61.373402288782	1
10	7211	62.195254645687	3
10	7214	62.195926645687	1
10	7223	62.195936645687	0
10	7229	62.196240645687	1
10	7234	62.196290645687	0
10	7238	62.196962645687	1
10	7248	62.196973918755	3
10	7253	62.197277918755	1
10	7272	62.37137911045	3
10	7275	62.37205111045	1
10	7284	62.37206111045	0
10	7290	62.37236511045	1
10	7295	62.37241511045	0
10	7299	62.37308711045	1
10	7309	62.373098400373	3
10	7314	62.373402400373	1
10	7345	63.195254698699	3
10	7348	63.195926698699	1
10	7357	63.195936698699	0
10	7363	63.196240698699	1
10	7368	63.196370698699	0
10	7372	63.197042698699	1
10	7382	63.197054077834	3
10	7387	63.197358077834	1
10	7406	63.371379170355	3
10	7409	63.372051170355	1
10	7418	63.372061170355	0
10	7424	63.372365170355	1
10	7429	63.372435170355	0
10	7433	63.373107170355	1
10	7443	63.373118580204	3
10	7448	63.373422580204	1
10	7479	64.195254782699	3
10	7482	64.195926782699	1
10	7491	64.195936782699	0
10	7497	64.196240782699	1
10	7502	64.196430782699	0
10	7506	64.197102782699	1
10	7516	64.197114329735	3
10	7521	64.197418329735	1
10	7540	64.371379243208	3
10	7543	64.372051243208	1
10	7552	64.372061243208	0
10	7558	64.372365243208	1
10	7563	64.372475243208	0
10	7567	64.373147243208	1
10	7577	64.37315879858	3
10	7582	64.37346279858	1
10	7613	65.195254806378	3
10	7616	65.195926806378	1
10	7625	65.195936806378	0
10	7631	65.196240806378	1
10	7636	65.196410806378	0
10	7640	65.197082806378	1
10	7650	65.19709440077	3
10	7655	65.19739840077	1
10	7674	65.371379266888	3
10	7677	65.372051266888	1
10	7686	65.372061266888	0
10	7692	65.372365266888	1
10	7697	65.372435266888	0
10	7701	65.373107266888	1
10	7711	65.373118869619	3
10	7716	65.373422869619	1
10	7747	66.195254830068	3
10	7750	66.195926830068	1
10	7759	66.195936830068	0
10	7765	66.196240830068	1
10	7770	66.196330830068	0
10	7774	66.197002830068	1
10	7784	66.197014471837	3
10	7789	66.197318471837	1
10	7808	66.371379288362	3
10	7811	66.372051288362	1
10	7820	66.372061288362	0
10	7826	66.372365288362	1
10	7831	66.372515288362	0
10	7835	66.373187288362	1
10	7845	66.373198933948	3
10	7850	66.373502933948	1
10	7882	67.195254824699	3
10	7885	67.195926824699	1
10	7894	67.195936824699	0
10	7900	67.196240824699	1
10	7905	67.196390824699	0
10	7909	67.197062824699	1
10	7919	67.197074455636	3
10	7924	67.197378455636	1
10	7943	67.371379279382	3
10	7946	67.372051279382	1
10	7955	67.372061279382	0
10	7961	67.372365279382	1
10	7966	67.372515279382	0
10	7970	67.373187279382	1
10	7980	67.373198907006	3
10	7985	67.373502907006	1
10	8017	68.195254814575	3
10	8020	68.195926814575	1
10	8029	68.195936814575	0
10	8035	68.196240814575	1
10	8040	68.196370814575	0
10	8044	68.197042814575	1
10	8054	68.197054425256	3
10	8059	68.197358425256	1
10	8077	68.371379268829	3
10	8080	68.372051268829	1
10	8089	68.372061268829	0
10	8095	68.372365268829	1
10	8100	68.372515268829	0
10	8104	68.373187268829	1
10	8114	68.373198875341	3
10	8119	68.373502875341	1
10	8152	69.195254811018	3
10	8155	69.195926811018	1
10	8164	69.195936811018	0
10	8170	69.196240811018	1
10	8175	69.196330811018	0
10	8179	69.197002811018	1
10	8189	69.197014414677	3
10	8194	69.197318414677	1
10	8211	69.371379270967	3
10	8214	69.372051270967	1
10	8223	69.372061270967	0
10	8229	69.372365270967	1
10	8234	69.372475270967	0
10	8238	69.373147270967	1
10	8248	69.37315888185	3
10	8253	69.37346288185	1
10	12059	90.37137927479	3
10	12062	90.37205127479	1
10	12071	90.37206127479	0
10	12077	90.37236527479	1
10	12082	90.37247527479	0
10	12086	90.37314727479	1
10	12096	90.373158892839	3
10	12101	90.373462892839	1
10	12134	91.195254729982	3
10	12137	91.195926729982	1
10	12146	91.195936729982	0
10	12152	91.196240729982	1
10	12157	91.196290729982	0
10	12161	91.196962729982	1
10	12171	91.196974171288	3
10	12176	91.197278171288	1
10	12193	91.371379172228	3
10	12196	91.372051172228	1
10	12205	91.372061172228	0
10	12211	91.372365172228	1
10	12216	91.372475172228	0
10	12220	91.373147172228	1
10	12230	91.373158585346	3
10	12235	91.373462585346	1
10	12268	92.195254658325	3
10	12271	92.195926658325	1
10	12280	92.195936658325	0
10	12286	92.196240658325	1
10	12291	92.196310658325	0
10	12295	92.196982658325	1
10	12305	92.19699395655	3
10	12310	92.19729795655	1
10	12327	92.371379115338	3
10	12330	92.372051115338	1
10	12339	92.372061115338	0
10	12345	92.372365115338	1
10	12350	92.372475115338	0
10	12355	92.373147115338	1
10	12365	92.373158414913	3
10	12370	92.373462414913	1
10	12402	93.195254679965	3
10	12405	93.195926679965	1
10	12414	93.195936679965	0
10	12420	93.196240679965	1
10	12425	93.196350679965	0
10	12429	93.197022679965	1
10	12439	93.19703402165	3
10	12444	93.19733802165	1
10	12462	93.371379147968	3
10	12465	93.372051147968	1
10	12474	93.372061147968	0
10	12480	93.372365147968	1
10	12485	93.372415147968	0
10	12490	93.373087147968	1
10	12500	93.373098512978	3
10	12505	93.373402512978	1
10	12536	94.195254760675	3
10	12539	94.195926760675	1
10	12548	94.195936760675	0
10	12554	94.196240760675	1
10	12559	94.196330760675	0
10	12563	94.197002760675	1
10	12573	94.197014264025	3
10	12578	94.197318264025	1
10	12597	94.371379244338	3
10	12600	94.372051244338	1
10	12609	94.372061244338	0
10	12615	94.372365244338	1
10	12620	94.372415244338	0
10	12624	94.373087244338	1
10	12634	94.373098802335	3
10	12639	94.373402802335	1
10	17100	119.195254839938	2
10	17103	119.195926839938	1
10	17110	119.19641083989	2
10	17113	119.19708283989	1
10	17120	119.197466839847	2
10	17123	119.198138839847	1
10	17130	119.198962839785	2
10	17133	119.199634839785	1
10	17140	119.200238839733	2
10	17143	119.200910839733	1
10	17150	119.203934839581	2
10	17153	119.204606839581	1
10	17160	119.205730839508	2
10	17164	119.206402839508	1
10	17184	119.371379289212	3
10	17187	119.372051289212	1
10	17196	119.372061289212	0
10	17202	119.372365289212	1
10	17207	119.372455289212	0
10	17211	119.373127289212	1
10	17221	119.373138936414	3
10	17226	119.373442936414	1
10	17259	120.195254812293	3
10	17262	120.195926812293	1
10	17271	120.195936812293	0
10	17277	120.196240812293	1
10	17282	120.196390812293	0
10	17286	120.197062812293	1
10	17296	120.197074418442	3
10	17301	120.197378418442	1
10	17319	120.371379268469	3
10	17322	120.372051268469	1
10	17331	120.372061268469	0
10	17337	120.372365268469	1
10	17342	120.372535268469	0
10	17346	120.373207268469	1
10	17356	120.373218874293	3
10	17361	120.373522874293	1
10	17393	121.195254812663	3
10	17396	121.195926812663	1
10	17405	121.195936812663	0
10	17411	121.196240812663	1
10	17416	121.196350812663	0
10	17420	121.197022812663	1
10	17430	121.197034419568	3
10	17435	121.197338419568	1
10	17453	121.371379269898	3
10	17457	121.372051269898	1
10	17466	121.372061269898	0
10	17472	121.372365269898	1
10	17477	121.372515269898	0
10	17481	121.373187269898	1
10	17491	121.373198878598	3
10	17496	121.373502878598	1
10	17528	122.195254821811	3
10	17531	122.195926821811	1
10	17540	122.195936821811	0
10	17546	122.196240821811	1
10	17551	122.196330821811	0
10	17555	122.197002821811	1
10	17565	122.197014447046	3
10	17570	122.197318447046	1
10	17589	122.371379291459	3
10	17592	122.372051291459	1
10	17601	122.372061291459	0
10	17607	122.372365291459	1
10	17612	122.372475291459	0
10	17616	122.373147291459	1
10	17626	122.373158943498	3
10	17631	122.373462943498	1
10	21228	145.371379231182	3
10	21231	145.371429231182	1
10	21241	145.371579231182	0
10	21245	145.372027231182	1
10	21260	145.372038762271	3
10	21265	145.372342762271	1
10	21271	145.372452762193	3
10	21274	145.373124762193	1
10	21283	145.373134762193	0
10	21289	145.373438762193	1
10	21296	145.373570292697	3
10	21299	145.374242292697	1
10	21308	145.374252292697	0
10	21314	145.374556292697	1
10	21319	145.374626292697	0
10	21323	145.375298292697	1
10	21333	145.375309822588	3
10	21338	145.375613822588	1
10	21344	145.375683822517	3
10	21347	145.376355822517	1
10	21356	145.376365822517	0
10	21362	145.376669822517	1
10	21367	145.376759822517	0
10	21371	145.377431822517	1
10	21381	145.377443351598	3
10	21386	145.377747351598	1
10	21390	145.377917351598	0
10	21394	145.378589351598	1
10	21404	145.37860088024	3
10	21409	145.37890488024	1
10	21452	146.195254638158	3
10	21455	146.195926638158	1
10	21464	146.195936638158	0
10	21470	146.196240638158	1
10	21475	146.196330638158	0
10	21479	146.197002638158	1
10	21489	146.197013895584	3
10	21494	146.197317895584	1
10	21513	146.37137906625	3
10	21516	146.37205106625	1
10	21525	146.37206106625	0
10	21531	146.37236506625	1
10	21536	146.37249506625	0
10	21540	146.37316706625	1
10	21550	146.373178267171	3
10	21555	146.373482267171	1
10	21586	147.195254478867	3
10	21589	147.195926478867	1
10	21598	147.195936478867	0
10	21604	147.196240478867	1
10	21609	147.196330478867	0
10	21613	147.197002478867	1
10	21623	147.19701341772	3
10	21628	147.19731741772	1
10	21648	147.371378903877	3
10	21651	147.372050903877	1
10	21660	147.372060903877	0
10	21666	147.372364903877	1
10	21671	147.372434903877	0
10	21675	147.373106903877	1
10	21685	147.373117780191	3
10	21690	147.373421780191	1
10	21721	148.195254355383	3
10	21724	148.195926355383	1
10	21733	148.195936355383	0
10	21739	148.196240355383	1
10	21744	148.196310355383	0
10	21748	148.196982355383	1
10	21758	148.196993047423	3
10	21763	148.197297047423	1
10	21782	148.371378793592	3
10	21785	148.372050793592	1
10	21794	148.372060793592	0
10	21800	148.372364793592	1
10	21805	148.372514793592	0
10	21809	148.373186793592	1
10	21819	148.373197449367	3
10	21824	148.373501449367	1
10	21856	149.195254277815	3
10	21859	149.195926277815	1
10	21868	149.195936277815	0
10	21874	149.196240277815	1
10	21879	149.196370277815	0
10	21883	149.197042277815	1
10	21893	149.19705281483	3
10	21898	149.19735681483	1
10	21916	149.371378723312	3
10	21919	149.372050723312	1
10	21928	149.372060723312	0
10	21935	149.372364723312	1
10	21940	149.372554723312	0
10	21944	149.373226723312	1
10	21954	149.373237238638	3
10	21959	149.373541238638	1
10	21991	150.195254216344	3
10	21994	150.195926216344	1
10	22003	150.195936216344	0
10	22009	150.196240216344	1
10	22014	150.196350216344	0
10	22018	150.197022216344	1
10	22028	150.19703263042	3
10	22033	150.19733663042	1
10	22051	150.371378662051	3
10	22054	150.372050662051	1
10	22063	150.372060662051	0
10	22070	150.372364662051	1
10	22075	150.372434662051	0
10	22079	150.373106662051	1
10	22089	150.373117054878	3
10	22094	150.373421054878	1
10	22126	151.195254149268	3
10	22129	151.195926149268	1
10	22138	151.195936149268	0
10	22144	151.196240149268	1
10	22149	151.196350149268	0
10	22153	151.197022149268	1
10	22163	151.197032429148	3
10	22168	151.197336429148	1
10	22186	151.371378591967	3
10	22189	151.372050591967	1
10	22198	151.372060591967	0
10	22204	151.372364591967	1
10	22209	151.372474591967	0
10	22213	151.373146591967	1
10	22223	151.373156844566	3
10	22228	151.373460844566	1
10	22260	152.195254072021	3
10	22263	152.195926072021	1
10	22272	152.195936072021	0
10	22278	152.196240072021	1
10	22283	152.196310072021	0
10	22287	152.196982072021	1
10	22297	152.196992197415	3
10	22302	152.197296197415	1
10	22320	152.371378514884	3
10	22323	152.372050514884	1
10	22332	152.372060514884	0
10	22338	152.372364514884	1
10	22343	152.372554514884	0
10	22347	152.373226514884	1
10	22357	152.37323661331	3
10	22362	152.37354061331	1
10	22394	153.195254024203	3
10	22397	153.195926024203	1
10	22406	153.195936024203	0
10	22412	153.196240024203	1
10	22417	153.196410024203	0
10	22421	153.197082024203	1
10	22431	153.197092054307	3
10	22436	153.197396054307	1
10	22454	153.371378489621	3
10	22457	153.372050489621	1
10	22466	153.372060489621	0
10	22472	153.372364489621	1
10	22477	153.372414489621	0
10	22481	153.373086489621	1
10	22491	153.373096537907	3
10	22497	153.373400537907	1
10	22529	154.195254094019	3
10	22532	154.195926094019	1
10	22541	154.195936094019	0
10	22547	154.196240094019	1
10	22552	154.196410094019	0
10	22556	154.197082094019	1
10	22566	154.197092263913	3
10	22571	154.197396263913	1
10	22589	154.371378567489	3
10	22592	154.372050567489	1
10	22601	154.372060567489	0
10	22607	154.372364567489	1
10	22612	154.372414567489	0
10	22616	154.373086567489	1
10	22626	154.373096771626	3
10	22632	154.373400771626	1
10	22663	155.195254167457	3
10	22666	155.195926167457	1
10	22675	155.195936167457	0
10	22681	155.196240167457	1
10	22686	155.196330167457	0
10	22690	155.197002167457	1
10	22700	155.197012484105	3
10	22705	155.197316484105	1
10	22724	155.371378635787	3
10	22727	155.372050635787	1
10	22736	155.372060635787	0
10	22742	155.372364635787	1
10	22747	155.372454635787	0
10	22751	155.373126635787	1
10	22761	155.373136976447	3
10	22766	155.373440976447	1
10	22797	156.195254233907	3
10	22800	156.195926233907	1
10	22809	156.195936233907	0
10	22815	156.196240233907	1
10	22820	156.196330233907	0
10	22824	156.197002233907	1
10	22834	156.197012683458	3
10	22839	156.197316683458	1
10	22858	156.371378700833	3
10	22861	156.372050700833	1
10	22870	156.372060700833	0
10	22876	156.372364700833	1
10	22881	156.372454700833	0
10	22885	156.373126700833	1
10	22895	156.373137171558	3
10	22900	156.373441171558	1
10	22931	157.195254280544	3
10	22934	157.195926280544	1
10	22943	157.195936280544	0
10	22949	157.196240280544	1
10	22954	157.196310280544	0
10	22958	157.196982280544	1
10	22968	157.196992823283	3
10	22973	157.197296823283	1
10	22992	157.371378742405	3
10	22995	157.372050742405	1
10	23004	157.372060742405	0
10	23010	157.372364742405	1
10	23015	157.372554742405	0
10	23019	157.373226742405	1
10	23029	157.373237296199	3
10	23034	157.373541296199	1
10	23065	158.195254284002	3
10	23068	158.195926284002	1
10	23077	158.195936284002	0
10	23083	158.196240284002	1
10	23088	158.196350284002	0
10	23092	158.197022284002	1
10	23102	158.197032833596	3
10	23107	158.197336833596	1
10	23126	158.371378742288	3
10	23129	158.372050742288	1
10	23138	158.372060742288	0
10	23144	158.372364742288	1
[...]
37	31456	213.383744465556	1
37	31456	213.383744465556	2
37	31460	213.390574465556	2
37	31460	213.390574465556	3
37	31462	213.390574465556	3
37	31462	213.390574465556	3
37	31469	213.391468465556	3
37	31469	213.391468465556	0
37	31470	213.391560465556	0
37	31470	213.391560465556	0
37	31493	214.195254009217	0
37	31493	214.195254009217	2
37	31494	214.195254009217	2
37	31494	214.195254009217	3
37	31496	214.195254009217	3
37	31496	214.195254009217	3
37	31502	214.196148009217	3
37	31502	214.196148009217	0
37	31502	214.196148009217	0
37	31502	214.196148009217	1
37	31503	214.196240009217	1
37	31503	214.196240009217	2
37	31504	214.196310009217	2
37	31504	214.196310009217	3
37	31506	214.196310009217	3
37	31506	214.196310009217	3
37	31512	214.197204009217	3
37	31512	214.197204009217	0
37	31512	214.197204009217	0
37	31512	214.197204009217	1
37	31513	214.197296009217	1
37	31513	214.197296009217	2
37	31514	214.197426009217	2
37	31514	214.197426009217	3
37	31516	214.197426009217	3
37	31516	214.197426009217	3
37	31522	214.198320009217	3
37	31522	214.198320009217	0
37	31522	214.198320009217	0
37	31522	214.198320009217	1
37	31523	214.198412009217	1
37	31523	214.198412009217	2
37	31524	214.198602009217	2
37	31524	214.198602009217	3
37	31526	214.198602009217	3
37	31526	214.198602009217	3
37	31532	214.199496009217	3
37	31532	214.199496009217	0
37	31532	214.199496009217	0
37	31532	214.199496009217	1
37	31533	214.199588009217	1
37	31533	214.199588009217	2
37	31534	214.200698009217	2
37	31534	214.200698009217	3
37	31536	214.200698009217	3
37	31536	214.200698009217	3
37	31542	214.201592009217	3
37	31542	214.201592009217	0
37	31542	214.201592009217	0
37	31542	214.201592009217	1
37	31543	214.201684009217	1
37	31543	214.201684009217	2
37	31544	214.205694009217	2
37	31544	214.205694009217	3
37	31546	214.205694009217	3
37	31546	214.205694009217	3
37	31553	214.206588009217	3
37	31553	214.206588009217	0
37	31553	214.206588009217	0
37	31553	214.206588009217	1
37	31554	214.206680009217	1
37	31554	214.206680009217	2
37	31558	214.209470009217	2
37	31558	214.209470009217	3
37	31560	214.209470009217	3
37	31560	214.209470009217	3
37	31566	214.210364009217	3
37	31566	214.210364009217	0
37	31567	214.210456009217	0
37	31567	214.210456009217	0
37	31579	214.371378465556	0
37	31579	214.371378465556	2
37	31580	214.371378465556	2
37	31580	214.371378465556	3
37	31582	214.371378465556	3
37	31582	214.371378465556	3
37	31588	214.372272465556	3
37	31588	214.372272465556	0
37	31588	214.372272465556	0
37	31588	214.372272465556	1
37	31589	214.372364465556	1
37	31589	214.372364465556	2
37	31590	214.372454465556	2
37	31590	214.372454465556	3
37	31592	214.372454465556	3
37	31592	214.372454465556	3
37	31598	214.373348465556	3
37	31598	214.373348465556	0
37	31598	214.373348465556	0
37	31598	214.373348465556	1
37	31599	214.373440465556	1
37	31599	214.373440465556	2
37	31600	214.374070465556	2
37	31600	214.374070465556	3
37	31602	214.374070465556	3
37	31602	214.374070465556	3
37	31608	214.374964465556	3
37	31608	214.374964465556	0
37	31608	214.374964465556	0
37	31608	214.374964465556	1
37	31609	214.375056465556	1
37	31609	214.375056465556	2
37	31610	214.376166465556	2
37	31610	214.376166465556	3
37	31612	214.376166465556	3
37	31612	214.376166465556	3
37	31618	214.377060465556	3
37	31618	214.377060465556	0
37	31618	214.377060465556	0
37	31618	214.377060465556	1
37	31619	214.377152465556	1
37	31619	214.377152465556	2
37	31620	214.378402465556	2
37	31620	214.378402465556	3
37	31622	214.378402465556	3
37	31622	214.378402465556	3
37	31628	214.379296465556	3
37	31628	214.379296465556	0
37	31628	214.379296465556	0
37	31628	214.379296465556	1
37	31629	214.379388465556	1
37	31629	214.379388465556	2
37	31630	214.380278465556	2
37	31630	214.380278465556	3
37	31632	214.380278465556	3
37	31632	214.380278465556	3
37	31638	214.381172465556	3
37	31638	214.381172465556	0
37	31638	214.381172465556	0
37	31638	214.381172465556	1
37	31639	214.381264465556	1
37	31639	214.381264465556	2
37	31645	214.390634465556	2
37	31645	214.390634465556	3
37	31647	214.390634465556	3
37	31647	214.390634465556	3
37	31654	214.391528465556	3
37	31654	214.391528465556	0
37	31655	214.391620465556	0
37	31655	214.391620465556	0
37	31677	215.195254009217	0
37	31677	215.195254009217	2
37	31678	215.195254009217	2
37	31678	215.195254009217	3
37	31680	215.195254009217	3
37	31680	215.195254009217	3
37	31687	215.196148009217	3
37	31687	215.196148009217	0
37	31687	215.196148009217	0
37	31687	215.196148009217	1
37	31688	215.196240009217	1
37	31688	215.196240009217	2
37	31689	215.196550009217	2
37	31689	215.196550009217	3
37	31691	215.196550009217	3
37	31691	215.196550009217	3
37	31697	215.197444009217	3
37	31697	215.197444009217	0
37	31697	215.197444009217	0
37	31697	215.197444009217	1
37	31698	215.197536009217	1
37	31698	215.197536009217	2
37	31699	215.197926009217	2
37	31699	215.197926009217	3
37	31701	215.197926009217	3
37	31701	215.197926009217	3
37	31707	215.198820009217	3
37	31707	215.198820009217	0
37	31707	215.198820009217	0
37	31707	215.198820009217	1
37	31708	215.198912009217	1
37	31708	215.198912009217	2
37	31709	215.199662009217	2
37	31709	215.199662009217	3
37	31711	215.199662009217	3
37	31711	215.199662009217	3
37	31717	215.200556009217	3
37	31717	215.200556009217	0
37	31717	215.200556009217	0
37	31717	215.200556009217	1
37	31718	215.200648009217	1
37	31718	215.200648009217	2
37	31719	215.203098009217	2
37	31719	215.203098009217	3
37	31721	215.203098009217	3
37	31721	215.203098009217	3
37	31727	215.203992009217	3
37	31727	215.203992009217	0
37	31727	215.203992009217	0
37	31727	215.203992009217	1
37	31728	215.204084009217	1
37	31728	215.204084009217	2
37	31729	215.204514009217	2
37	31729	215.204514009217	3
37	31731	215.204514009217	3
37	31731	215.204514009217	3
37	31737	215.205408009217	3
37	31737	215.205408009217	0
37	31737	215.205408009217	0
37	31737	215.205408009217	1
37	31738	215.205500009217	1
37	31738	215.205500009217	2
37	31743	215.213550009217	2
37	31743	215.213550009217	3
37	31745	215.213550009217	3
37	31745	215.213550009217	3
37	31752	215.214444009217	3
37	31752	215.214444009217	0
37	31753	215.214536009217	0
37	31753	215.214536009217	0
37	31763	215.371378465556	0
37	31763	215.371378465556	2
37	31764	215.371378465556	2
37	31764	215.371378465556	3
37	31766	215.371378465556	3
37	31766	215.371378465556	3
37	31772	215.372272465556	3
37	31772	215.372272465556	0
37	31772	215.372272465556	0
37	31772	215.372272465556	1
37	31773	215.372364465556	1
37	31773	215.372364465556	2
37	31774	215.372654465556	2
37	31774	215.372654465556	3
37	31776	215.372654465556	3
37	31776	215.372654465556	3
37	31782	215.373548465556	3
37	31782	215.373548465556	0
37	31782	215.373548465556	0
37	31782	215.373548465556	1
37	31783	215.373640465556	1
37	31783	215.373640465556	2
37	31784	215.373750465556	2
37	31784	215.373750465556	3
37	31786	215.373750465556	3
37	31786	215.373750465556	3
37	31792	215.374644465556	3
37	31792	215.374644465556	0
37	31792	215.374644465556	0
37	31792	215.374644465556	1
37	31793	215.374736465556	1
37	31793	215.374736465556	2
37	31794	215.375686465556	2
37	31794	215.375686465556	3
37	31796	215.375686465556	3
37	31796	215.375686465556	3
37	31802	215.376580465556	3
37	31802	215.376580465556	0
37	31802	215.376580465556	0
37	31802	215.376580465556	1
37	31803	215.376672465556	1
37	31803	215.376672465556	2
37	31804	215.377842465556	2
37	31804	215.377842465556	3
37	31806	215.377842465556	3
37	31806	215.377842465556	3
37	31812	215.378736465556	3
37	31812	215.378736465556	0
37	31812	215.378736465556	0
37	31812	215.378736465556	1
37	31813	215.378828465556	1
37	31813	215.378828465556	2
37	31815	215.382758465556	2
37	31815	215.382758465556	3
37	31817	215.382758465556	3
37	31817	215.382758465556	3
37	31824	215.383652465556	3
37	31824	215.383652465556	0
37	31824	215.383652465556	0
37	31824	215.383652465556	1
37	31825	215.383744465556	1
37	31825	215.383744465556	2
37	31829	215.389314465556	2
37	31829	215.389314465556	3
37	31831	215.389314465556	3
37	31831	215.389314465556	3
37	31837	215.390208465556	3
37	31837	215.390208465556	0
37	31838	215.390300465556	0
37	31838	215.390300465556	0
37	31861	216.195254009217	0
37	31861	216.195254009217	2
37	31862	216.195254009217	2
37	31862	216.195254009217	3
37	31864	216.195254009217	3
37	31864	216.195254009217	3
37	31871	216.196148009217	3
37	31871	216.196148009217	0
37	31871	216.196148009217	0
37	31871	216.196148009217	1
37	31872	216.196240009217	1
37	31872	216.196240009217	2
37	31873	216.196310009217	2
37	31873	216.196310009217	3
37	31875	216.196310009217	3
37	31875	216.196310009217	3
37	31881	216.197204009217	3
37	31881	216.197204009217	0
37	31881	216.197204009217	0
37	31881	216.197204009217	1
37	31882	216.197296009217	1
37	31882	216.197296009217	2
37	31883	216.197586009217	2
37	31883	216.197586009217	3
37	31885	216.197586009217	3
37	31885	216.197586009217	3
37	31891	216.198480009217	3
37	31891	216.198480009217	0
37	31891	216.198480009217	0
37	31891	216.198480009217	1
37	31892	216.198572009217	1
37	31892	216.198572009217	2
37	31893	216.199382009217	2
37	31893	216.199382009217	3
37	31895	216.199382009217	3
37	31895	216.199382009217	3
37	31901	216.200276009217	3
37	31901	216.200276009217	0
37	31901	216.200276009217	0
37	31901	216.200276009217	1
37	31902	216.200368009217	1
37	31902	216.200368009217	2
37	31903	216.201258009217	2
37	31903	216.201258009217	3
37	31905	216.201258009217	3
37	31905	216.201258009217	3
37	31911	216.202152009217	3
37	31911	216.202152009217	0
37	31911	216.202152009217	0
37	31911	216.202152009217	1
37	31912	216.202244009217	1
37	31912	216.202244009217	2
37	31914	216.206334009217	2
37	31914	216.206334009217	3
37	31916	216.206334009217	3
37	31916	216.206334009217	3
37	31923	216.207228009217	3
37	31923	216.207228009217	0
37	31923	216.207228009217	0
37	31923	216.207228009217	1
37	31924	216.207320009217	1
37	31924	216.207320009217	2
37	31925	216.208110009217	2
37	31925	216.208110009217	3
37	31927	216.208110009217	3
37	31927	216.208110009217	3
37	31934	216.209004009217	3
37	31934	216.209004009217	0
37	31935	216.209096009217	0
37	31935	216.209096009217	0
37	31947	216.371378465556	0
37	31947	216.371378465556	2
37	31948	216.371378465556	2
37	31948	216.371378465556	3
37	31950	216.371378465556	3
37	31950	216.371378465556	3
37	31956	216.372272465556	3
37	31956	216.372272465556	0
37	31956	216.372272465556	0
37	31956	216.372272465556	1
37	31957	216.372364465556	1
37	31957	216.372364465556	2
37	31958	216.372574465556	2
37	31958	216.372574465556	3
37	31960	216.372574465556	3
37	31960	216.372574465556	3
37	31966	216.373468465556	3
37	31966	216.373468465556	0
37	31966	216.373468465556	0
37	31966	216.373468465556	1
37	31967	216.373560465556	1
37	31967	216.373560465556	2
37	31968	216.373910465556	2
37	31968	216.373910465556	3
37	31970	216.373910465556	3
37	31970	216.373910465556	3
37	31976	216.374804465556	3
37	31976	216.374804465556	0
37	31976	216.374804465556	0
37	31976	216.374804465556	1
37	31977	216.374896465556	1
37	31977	216.374896465556	2
37	31978	216.375486465556	2
37	31978	216.375486465556	3
37	31980	216.375486465556	3
37	31980	216.375486465556	3
37	31986	216.376380465556	3
37	31986	216.376380465556	0
37	31986	216.376380465556	0
37	31986	216.376380465556	1
37	31987	216.376472465556	1
37	31987	216.376472465556	2
37	31988	216.376602465556	2
37	31988	216.376602465556	3
37	31990	216.376602465556	3
37	31990	216.376602465556	3
37	31996	216.377496465556	3
37	31996	216.377496465556	0
37	31996	216.377496465556	0
37	31996	216.377496465556	1
37	31997	216.377588465556	1
37	31997	216.377588465556	2
37	31998	216.381218465556	2
37	31998	216.381218465556	3
37	32000	216.381218465556	3
37	32000	216.381218465556	3
37	32007	216.382112465556	3
37	32007	216.382112465556	0
37	32007	216.382112465556	0
37	32007	216.382112465556	1
37	32008	216.382204465556	1
37	32008	216.382204465556	2
37	32013	216.390374465556	2
37	32013	216.390374465556	3
37	32015	216.390374465556	3
37	32015	216.390374465556	3
37	32021	216.391268465556	3
37	32021	216.391268465556	0
37	32022	216.391360465556	0
37	32022	216.391360465556	0
37	32046	217.195254009217	0
37	32046	217.195254009217	2
37	32047	217.195254009217	2
37	32047	217.195254009217	3
37	32049	217.195254009217	3
37	32049	217.195254009217	3
37	32055	217.196148009217	3
37	32055	217.196148009217	0
37	32055	217.196148009217	0
37	32055	217.196148009217	1
37	32056	217.196240009217	1
37	32056	217.196240009217	2
37	32057	217.196350009217	2
37	32057	217.196350009217	3
37	32059	217.196350009217	3
37	32059	217.196350009217	3
37	32065	217.197244009217	3
37	32065	217.197244009217	0
37	32065	217.197244009217	0
37	32065	217.197244009217	1
37	32066	217.197336009217	1
37	32066	217.197336009217	2
37	32067	217.197986009217	2
37	32067	217.197986009217	3
37	32069	217.197986009217	3
37	32069	217.197986009217	3
37	32075	217.198880009217	3
37	32075	217.198880009217	0
37	32075	217.198880009217	0
37	32075	217.198880009217	1
37	32076	217.198972009217	1
37	32076	217.198972009217	2
37	32077	217.199162009217	2
37	32077	217.199162009217	3
37	32079	217.199162009217	3
37	32079	217.199162009217	3
37	32085	217.200056009217	3
37	32085	217.200056009217	0
37	32085	217.200056009217	0
37	32085	217.200056009217	1
37	32086	217.200148009217	1
37	32086	217.200148009217	2
37	32087	217.201958009217	2
37	32087	217.201958009217	3
37	32089	217.201958009217	3
37	32089	217.201958009217	3
37	32095	217.202852009217	3
37	32095	217.202852009217	0
37	32095	217.202852009217	0
37	32095	217.202852009217	1
37	32096	217.202944009217	1
37	32096	217.202944009217	2
37	32097	217.204754009217	2
37	32097	217.204754009217	3
37	32099	217.204754009217	3
37	32099	217.204754009217	3
37	32105	217.205648009217	3
37	32105	217.205648009217	0
37	32105	217.205648009217	0
37	32105	217.205648009217	1
37	32106	217.205740009217	1
37	32106	217.205740009217	2
37	32111	217.210570009217	2
37	32111	217.210570009217	3
37	32113	217.210570009217	3
37	32113	217.210570009217	3
37	32119	217.211464009217	3
37	32119	217.211464009217	0
37	32120	217.211556009217	0
37	32120	217.211556009217	0
37	32131	217.371378465556	0
37	32131	217.371378465556	2
37	32132	217.371378465556	2
37	32132	217.371378465556	3
37	32134	217.371378465556	3
37	32134	217.371378465556	3
37	32140	217.372272465556	3
37	32140	217.372272465556	0
37	32140	217.372272465556	0
37	32140	217.372272465556	1
37	32141	217.372364465556	1
37	32141	217.372364465556	2
37	32142	217.372614465556	2
37	32142	217.372614465556	3
37	32144	217.372614465556	3
37	32144	217.372614465556	3
37	32150	217.373508465556	3
37	32150	217.373508465556	0
37	32150	217.373508465556	0
37	32150	217.373508465556	1
37	32151	217.373600465556	1
37	32151	217.373600465556	2
37	32152	217.374030465556	2
37	32152	217.374030465556	3
37	32154	217.374030465556	3
37	32154	217.374030465556	3
37	32160	217.374924465556	3
37	32160	217.374924465556	0
37	32160	217.374924465556	0
37	32160	217.374924465556	1
37	32161	217.375016465556	1
37	32161	217.375016465556	2
37	32162	217.375326465556	2
37	32162	217.375326465556	3
37	32164	217.375326465556	3
37	32164	217.375326465556	3
37	32171	217.376220465556	3
37	32171	217.376220465556	0
37	32171	217.376220465556	0
37	32171	217.376220465556	1
37	32172	217.376312465556	1
37	32172	217.376312465556	2
37	32173	217.378422465556	2
37	32173	217.378422465556	3
37	32175	217.378422465556	3
37	32175	217.378422465556	3
37	32181	217.379316465556	3
37	32181	217.379316465556	0
37	32181	217.379316465556	0
37	32181	217.379316465556	1
37	32182	217.379408465556	1
37	32182	217.379408465556	2
37	32183	217.380578465556	2
37	32183	217.380578465556	3
37	32185	217.380578465556	3
37	32185	217.380578465556	3
37	32191	217.381472465556	3
37	32191	217.381472465556	0
37	32191	217.381472465556	0
37	32191	217.381472465556	1
37	32192	217.381564465556	1
37	32192	217.381564465556	2
37	32199	217.391314465556	2
37	32199	217.391314465556	3
37	32201	217.391314465556	3
37	32201	217.391314465556	3
37	32207	217.392208465556	3
37	32207	217.392208465556	0
37	32208	217.392300465556	0
37	32208	217.392300465556	0
37	32230	218.195254009217	0
37	32230	218.195254009217	2
37	32231	218.195254009217	2
37	32231	218.195254009217	3
37	32233	218.195254009217	3
37	32233	218.195254009217	3
37	32239	218.196148009217	3
37	32239	218.196148009217	0
37	32239	218.196148009217	0
37	32239	218.196148009217	1
37	32240	218.196240009217	1
37	32240	218.196240009217	2
37	32241	218.196330009217	2
37	32241	218.196330009217	3
37	32243	218.196330009217	3
37	32243	218.196330009217	3
37	32249	218.197224009217	3
37	32249	218.197224009217	0
37	32249	218.197224009217	0
37	32249	218.197224009217	1
37	32250	218.197316009217	1
37	32250	218.197316009217	2
37	32251	218.197506009217	2
37	32251	218.197506009217	3
37	32253	218.197506009217	3
37	32253	218.197506009217	3
37	32259	218.198400009217	3
37	32259	218.198400009217	0
37	32259	218.198400009217	0
37	32259	218.198400009217	1
37	32260	218.198492009217	1
37	32260	218.198492009217	2
37	32261	218.199742009217	2
37	32261	218.199742009217	3
37	32263	218.199742009217	3
37	32263	218.199742009217	3
37	32269	218.200636009217	3
37	32269	218.200636009217	0
37	32269	218.200636009217	0
37	32269	218.200636009217	1
37	32270	218.200728009217	1
37	32270	218.200728009217	2
37	32271	218.201258009217	2
37	32271	218.201258009217	3
37	32273	218.201258009217	3
37	32273	218.201258009217	3
37	32280	218.202152009217	3
37	32280	218.202152009217	0
37	32280	218.202152009217	0
37	32280	218.202152009217	1
37	32281	218.202244009217	1
37	32281	218.202244009217	2
37	32282	218.205494009217	2
37	32282	218.205494009217	3
37	32284	218.205494009217	3
37	32284	218.205494009217	3
37	32291	218.206388009217	3
37	32291	218.206388009217	0
37	32291	218.206388009217	0
37	32291	218.206388009217	1
37	32292	218.206480009217	1
37	32292	218.206480009217	2
37	32297	218.213810009217	2
37	32297	218.213810009217	3
37	32299	218.213810009217	3
37	32299	218.213810009217	3
37	32305	218.214704009217	3
37	32305	218.214704009217	0
37	32306	218.214796009217	0
37	32306	218.214796009217	0
37	32315	218.371378465556	0
37	32315	218.371378465556	2
37	32316	218.371378465556	2
37	32316	218.371378465556	3
37	32318	218.371378465556	3
37	32318	218.371378465556	3
37	32324	218.372272465556	3
37	32324	218.372272465556	0
37	32324	218.372272465556	0
37	32324	218.372272465556	1
37	32325	218.372364465556	1
37	32325	218.372364465556	2
37	32326	218.372494465556	2
37	32326	218.372494465556	3
37	32328	218.372494465556	3
37	32328	218.372494465556	3
37	32334	218.373388465556	3
37	32334	218.373388465556	0
37	32334	218.373388465556	0
37	32334	218.373388465556	1
37	32335	218.373480465556	1
37	32335	218.373480465556	2
37	32336	218.373690465556	2
37	32336	218.373690465556	3
37	32338	218.373690465556	3
37	32338	218.373690465556	3
37	32344	218.374584465556	3
37	32344	218.374584465556	0
37	32344	218.374584465556	0
37	32344	218.374584465556	1
37	32345	218.374676465556	1
37	32345	218.374676465556	2
37	32347	218.375966465556	2
37	32347	218.375966465556	3
37	32349	218.375966465556	3
37	32349	218.375966465556	3
37	32355	218.376860465556	3
37	32355	218.376860465556	0
37	32355	218.376860465556	0
37	32355	218.376860465556	1
37	32356	218.376952465556	1
37	32356	218.376952465556	2
37	32357	218.379222465556	2
37	32357	218.379222465556	3
37	32359	218.379222465556	3
37	32359	218.379222465556	3
37	32365	218.380116465556	3
37	32365	218.380116465556	0
37	32365	218.380116465556	0
37	32365	218.380116465556	1
37	32366	218.380208465556	1
37	32366	218.380208465556	2
37	32368	218.382578465556	2
37	32368	218.382578465556	3
37	32370	218.382578465556	3
37	32370	218.382578465556	3
37	32377	218.383472465556	3
37	32377	218.383472465556	0
37	32377	218.383472465556	0
37	32377	218.383472465556	1
37	32378	218.383564465556	1
37	32378	218.383564465556	2
37	32383	218.393294465556	2
37	32383	218.393294465556	3
37	32385	218.393294465556	3
37	32385	218.393294465556	3
37	32391	218.394188465556	3
37	32391	218.394188465556	0
37	32392	218.394280465556	0
37	32392	218.394280465556	0
37	32414	219.195254009217	0
37	32414	219.195254009217	2
37	32415	219.195254009217	2
37	32415	219.195254009217	3
